@<TRIPOS>MOLECULE
tmp/1zq5A00.pdb
 184 186 0 0 0
SMALL
GASTEIGER

@<TRIPOS>ATOM
      1  N         25.6840   34.2950    9.4930 N.3    20  TYR20      -0.1241
      2  CA        27.0670   34.3880    9.9620 C.3    20  TYR20       0.1605
      3  C         27.9840   34.9580    8.8910 C.2    20  TYR20       0.2264
      4  O         27.9640   34.5260    7.7360 O.2    20  TYR20      -0.2867
      5  CB        27.6360   33.0470   10.4500 C.3    20  TYR20       0.0534
      6  CG        29.0590   33.2010   10.9580 C.ar   20  TYR20      -0.0201
      7  CD1       29.3020   33.7530   12.2080 C.ar   20  TYR20      -0.0009
      8  CD2       30.1590   32.8450   10.1690 C.ar   20  TYR20      -0.0009
      9  CE1       30.6000   33.9240   12.6800 C.ar   20  TYR20       0.0417
     10  CE2       31.4600   33.0270   10.6240 C.ar   20  TYR20       0.0417
     11  CZ        31.6660   33.5540   11.8850 C.ar   20  TYR20       0.1957
     12  OH        32.9570   33.7220   12.3430 O.3    20  TYR20      -0.2866
     13  N         34.5330   37.7950   11.5310 N.3    23  PRO23      -0.2116
     14  CA        34.7690   39.0680   12.2330 C.3    23  PRO23       0.1372
     15  C         35.3090   40.2030   11.3670 C.2    23  PRO23       0.2244
     16  O         35.1310   41.3720   11.7110 O.2    23  PRO23      -0.2868
     17  CB        35.8190   38.6970   13.2830 C.3    23  PRO23       0.0268
     18  CG        35.6310   37.2590   13.5180 C.3    23  PRO23       0.0207
     19  CD        35.2310   36.6780   12.1940 C.3    23  PRO23       0.0892
     20  N         26.9770   33.6750   19.1260 N.3    50  LEU50      -0.1245
     21  CA        28.3390   33.5800   18.5980 C.3    50  LEU50       0.1561
     22  C         28.6110   34.5560   17.4510 C.2    50  LEU50       0.2260
     23  O         29.7580   34.9600   17.2360 O.2    50  LEU50      -0.2867
     24  CB        28.5840   32.1470   18.1060 C.3    50  LEU50       0.0270
     25  CG        29.9550   31.8290   17.4970 C.3    50  LEU50       0.0019
     26  CD1       31.0640   31.9020   18.5500 C.3    50  LEU50       0.0001
     27  CD2       29.9280   30.4630   16.8290 C.3    50  LEU50       0.0001
     28  N         25.2520   29.8840   23.2900 N.3    82  TRP82      -0.1241
     29  CA        26.6570   29.5980   23.0720 C.3    82  TRP82       0.1605
     30  C         27.2120   28.6630   24.1650 C.2    82  TRP82       0.2264
     31  O         26.6490   28.5460   25.2580 O.2    82  TRP82      -0.2867
     32  CB        27.4780   30.8970   22.8760 C.3    82  TRP82       0.0550
     33  CG        28.9170   30.5960   22.6040 C.ar   82  TRP82       0.0003
     34  CD1       30.0090   31.0250   23.3220 C.ar   82  TRP82       0.0946
     35  CD2       29.4220   29.7110   21.5970 C.ar   82  TRP82       0.0152
     36  NE1       31.1580   30.4780   22.7980 N.ar   82  TRP82      -0.2442
     37  CE2       30.8260   29.6610   21.7480 C.ar   82  TRP82       0.0810
     38  CE3       28.8200   28.9460   20.5830 C.ar   82  TRP82       0.0012
     39  CZ2       31.6380   28.8850   20.9170 C.ar   82  TRP82       0.0191
     40  CZ3       29.6340   28.1730   19.7600 C.ar   82  TRP82       0.0001
     41  CH2       31.0240   28.1450   19.9390 C.ar   82  TRP82       0.0015
     42  N         23.7870   25.5590   20.6120 N.3   113  HIS113     -0.1226
     43  CA        24.5990   25.7410   19.3950 C.3   113  HIS113      0.1752
     44  C         25.4750   24.5110   19.0960 C.2   113  HIS113      0.2597
     45  O         25.6550   24.1260   17.9320 O.2   113  HIS113     -0.2718
     46  CB        25.4840   26.9870   19.5500 C.3   113  HIS113      0.0759
     47  CG        25.9560   27.5940   18.2580 C.ar  113  HIS113      0.0818
     48  ND1       26.0410   28.9570   18.0740 N.ar  113  HIS113     -0.2268
     49  CD2       26.3830   27.0300   17.0980 C.ar  113  HIS113      0.1154
     50  CE1       26.4970   29.2090   16.8580 C.ar  113  HIS113      0.1986
     51  NE2       26.7210   28.0550   16.2450 N.ar  113  HIS113     -0.2212
     52  N         26.0170   23.9010   20.1510 N.am  114  SER114     -0.1938
     53  CA        26.9560   22.7970   20.0020 C.3   114  SER114      0.2040
     54  C         26.9660   21.9910   21.3000 C.2   114  SER114      0.2485
     55  O         26.7760   22.5580   22.3740 O.2   114  SER114     -0.2729
     56  CB        28.3640   23.3330   19.7030 C.3   114  SER114      0.2129
     57  OG        29.3370   22.2880   19.7450 O.3   114  SER114     -0.2179
     58  N         27.1840   20.6650   21.2140 N.am  115  PRO115     -0.2715
     59  CA        27.3200   19.8820   22.4580 C.3   115  PRO115      0.1536
     60  C         28.6540   20.1010   23.1810 C.2   115  PRO115      0.2598
     61  O         28.8310   19.6060   24.2960 O.2   115  PRO115     -0.2715
     62  CB        27.2180   18.4290   21.9690 C.3   115  PRO115      0.0310
     63  CG        27.7450   18.4750   20.5680 C.3   115  PRO115      0.0237
     64  CD        27.2660   19.8090   20.0130 C.3   115  PRO115      0.0939
     65  N         29.5740   20.8350   22.5610 N.am  116  MET116     -0.1978
     66  CA        30.9290   20.9820   23.1010 C.3   116  MET116      0.1605
     67  C         31.0180   22.1050   24.1360 C.2   116  MET116      0.2287
     68  O         31.4680   23.2090   23.8260 O.2   116  MET116     -0.2864
     69  CB        31.9270   21.2270   21.9710 C.3   116  MET116      0.0413
     70  CG        32.0350   20.0830   20.9840 C.3   116  MET116      0.0598
     71  SD        33.3840   20.3410   19.8010 S.3   116  MET116     -0.1393
     72  CE        32.8950   21.9100   19.0660 C.3   116  MET116      0.0692
     73  N         34.4100   34.0830   24.2000 N.3   124  LEU124     -0.1231
     74  CA        33.7600   33.1570   23.2720 C.3   124  LEU124      0.1693
     75  C         34.5340   31.8440   23.2080 C.2   124  LEU124      0.2592
     76  O         33.9430   30.7650   23.2860 O.2   124  LEU124     -0.2718
     77  CB        33.6380   33.7700   21.8710 C.3   124  LEU124      0.0284
     78  CG        32.6170   34.8930   21.6490 C.3   124  LEU124      0.0019
     79  CD1       32.7650   35.4610   20.2520 C.3   124  LEU124      0.0001
     80  CD2       31.1870   34.4160   21.8810 C.3   124  LEU124      0.0001
     81  N         35.8580   31.9550   23.0860 N.am  125  SER125     -0.1952
     82  CA        36.7610   30.8070   23.0570 C.3   125  SER125      0.1924
     83  C         37.7700   30.8980   24.2030 C.2   125  SER125      0.2314
     84  O         38.8830   31.3950   24.0030 O.2   125  SER125     -0.2863
     85  CB        37.5240   30.7540   21.7270 C.3   125  SER125      0.2116
     86  OG        36.6690   30.9550   20.6220 O.3   125  SER125     -0.2180
     87  N         24.3340   20.4120   16.0450 N.3   160  ASN160     -0.1240
     88  CA        25.5950   19.6640   16.0580 C.3   160  ASN160      0.1653
     89  C         25.5890   18.4500   16.9650 C.2   160  ASN160      0.2266
     90  O         26.6460   17.9700   17.3520 O.2   160  ASN160     -0.2867
     91  CB        26.7810   20.5820   16.3980 C.3   160  ASN160      0.1155
     92  CG        27.0240   21.6130   15.3340 C.2   160  ASN160      0.2627
     93  OD1       27.2460   21.2670   14.1680 O.2   160  ASN160     -0.2716
     94  ND2       26.9690   22.8900   15.7140 N.am  160  ASN160     -0.0877
     95  N         23.1830   23.1060    7.6610 N.3   209  TYR209     -0.1241
     96  CA        24.0880   24.2320    7.4760 C.3   209  TYR209      0.1605
     97  C         25.3000   23.8310    6.6310 C.2   209  TYR209      0.2264
     98  O         25.5550   22.6400    6.4010 O.2   209  TYR209     -0.2867
     99  CB        24.4990   24.8730    8.8050 C.3   209  TYR209      0.0534
    100  CG        25.5250   24.1390    9.6540 C.ar  209  TYR209     -0.0201
    101  CD1       26.8630   24.0080    9.2510 C.ar  209  TYR209     -0.0009
    102  CD2       25.1660   23.6390   10.8950 C.ar  209  TYR209     -0.0009
    103  CE1       27.8030   23.3810   10.0530 C.ar  209  TYR209      0.0417
    104  CE2       26.1010   22.9870   11.7120 C.ar  209  TYR209      0.0417
    105  CZ        27.4150   22.8690   11.2810 C.ar  209  TYR209      0.1957
    106  OH        28.3560   22.2420   12.0640 O.3   209  TYR209     -0.2866
    107  N         40.3830   29.3490    9.7040 N.3   219  ARG219     -0.1231
    108  CA        40.4650   28.9890   11.1200 C.3   219  ARG219      0.1694
    109  C         39.9960   27.5560   11.3560 C.2   219  ARG219      0.2592
    110  O         40.4820   26.8690   12.2600 O.2   219  ARG219     -0.2718
    111  CB        39.6110   29.9320   11.9750 C.3   219  ARG219      0.0321
    112  CG        40.0760   31.3840   12.0030 C.3   219  ARG219      0.0489
    113  CD        39.0890   32.2680   12.7650 C.3   219  ARG219      0.2205
    114  NE        37.7280   32.1530   12.2410 N.pl3 219  ARG219     -0.0865
    115  CZ        36.6490   32.7310   12.7670 C.cat 219  ARG219      0.5346
    116  NH1       36.7390   33.4980   13.8550 N.pl3 219  ARG219      0.1354
    117  NH2       35.4660   32.5280   12.1950 N.pl3 219  ARG219      0.1354
    118  N         39.0460   27.1000   10.5310 N.am  220  TRP220     -0.1976
    119  CA        38.3550   25.8370   10.7900 C.3   220  TRP220      0.1640
    120  C         38.3680   24.8370    9.6480 C.2   220  TRP220      0.2290
    121  O         38.0840   23.6550    9.8790 O.2   220  TRP220     -0.2864
    122  CB        36.8850   26.0970   11.1790 C.3   220  TRP220      0.0576
    123  CG        36.6630   27.3570   11.9840 C.ar  220  TRP220      0.0006
    124  CD1       35.9960   28.4850   11.5770 C.ar  220  TRP220      0.0946
    125  CD2       37.1090   27.6130   13.3170 C.ar  220  TRP220      0.0152
    126  NE1       36.0080   29.4290   12.5790 N.ar  220  TRP220     -0.2442
    127  CE2       36.6800   28.9190   13.6590 C.ar  220  TRP220      0.0810
    128  CE3       37.8360   26.8690   14.2580 C.ar  220  TRP220      0.0012
    129  CZ2       36.9620   29.5030   14.9020 C.ar  220  TRP220      0.0191
    130  CZ3       38.1120   27.4490   15.5000 C.ar  220  TRP220      0.0001
    131  CH2       37.6700   28.7550   15.8070 C.ar  220  TRP220      0.0015
    132  N         34.1350   21.7530    8.7530 N.3   299  PHE299     -0.1241
    133  CA        34.6310   22.2030   10.0510 C.3   299  PHE299      0.1605
    134  C         35.4130   21.0480   10.6440 C.2   299  PHE299      0.2264
    135  O         34.8500   20.0110   10.9850 O.2   299  PHE299     -0.2867
    136  CB        33.4730   22.6350   10.9600 C.3   299  PHE299      0.0534
    137  CG        32.8490   23.9410   10.5600 C.ar  299  PHE299     -0.0203
    138  CD1       33.3410   25.1450   11.0560 C.ar  299  PHE299     -0.0042
    139  CD2       31.7750   23.9660    9.6610 C.ar  299  PHE299     -0.0042
    140  CE1       32.7700   26.3560   10.6690 C.ar  299  PHE299     -0.0003
    141  CE2       31.2010   25.1650    9.2760 C.ar  299  PHE299     -0.0003
    142  CZ        31.6980   26.3640    9.7810 C.ar  299  PHE299     -0.0000
    143  N         38.8700   21.7890   18.3290 N.3   304  PHE304     -0.1241
    144  CA        37.7150   21.0730   18.8730 C.3   304  PHE304      0.1605
    145  C         37.6380   19.5440   18.6400 C.2   304  PHE304      0.2264
    146  O         36.8150   18.8670   19.2700 O.2   304  PHE304     -0.2867
    147  CB        36.4060   21.7690   18.4590 C.3   304  PHE304      0.0534
    148  CG        36.2750   22.0270   16.9750 C.ar  304  PHE304     -0.0203
    149  CD1       36.0520   20.9730   16.0890 C.ar  304  PHE304     -0.0042
    150  CD2       36.3360   23.3250   16.4780 C.ar  304  PHE304     -0.0042
    151  CE1       35.9190   21.2140   14.7140 C.ar  304  PHE304     -0.0003
    152  CE2       36.2000   23.5840   15.0920 C.ar  304  PHE304     -0.0003
    153  CZ        35.9890   22.5160   14.2160 C.ar  304  PHE304     -0.0000
    154  N         32.8980   16.2260   21.3050 N.3   310  TYR310     -0.1228
    155  CA        32.9750   16.3590   19.8490 C.3   310  TYR310      0.1721
    156  C         32.1020   15.2710   19.2090 C.2   310  TYR310      0.2437
    157  O         32.2420   14.0960   19.5340 O.2   310  TYR310     -0.2733
    158  CB        34.4290   16.1880   19.4350 C.3   310  TYR310      0.0547
    159  CG        34.7330   16.1810   17.9580 C.ar  310  TYR310     -0.0200
    160  CD1       34.6030   17.3320   17.1910 C.ar  310  TYR310     -0.0009
    161  CD2       35.2270   15.0300   17.3490 C.ar  310  TYR310     -0.0009
    162  CE1       34.9310   17.3300   15.8400 C.ar  310  TYR310      0.0417
    163  CE2       35.5600   15.0170   15.9990 C.ar  310  TYR310      0.0417
    164  CZ        35.4110   16.1700   15.2530 C.ar  310  TYR310      0.1957
    165  OH        35.7530   16.1750   13.9200 O.3   310  TYR310     -0.2866
    166  N         31.1520   15.6640   18.3470 N.am  311  PRO311     -0.2718
    167  CA        30.1480   14.7040   17.8730 C.3   311  PRO311      0.1535
    168  C         30.5640   13.7500   16.7580 C.2   311  PRO311      0.2598
    169  O         29.8680   12.7580   16.5200 O.2   311  PRO311     -0.2715
    170  CB        29.0180   15.6100   17.3820 C.3   311  PRO311      0.0310
    171  CG        29.7180   16.8450   16.9170 C.3   311  PRO311      0.0237
    172  CD        30.8730   17.0360   17.8780 C.3   311  PRO311      0.0939
    173  N         31.6660   14.0320   16.0730 N.am  312  TYR312     -0.1974
    174  CA        32.0380   13.1960   14.9380 C.3   312  TYR312      0.1639
    175  C         32.9030   12.0370   15.3960 C.2   312  TYR312      0.2290
    176  O         33.6990   12.1800   16.3230 O.2   312  TYR312     -0.2864
    177  CB        32.7390   14.0140   13.8460 C.3   312  TYR312      0.0560
    178  CG        31.9050   15.1540   13.2830 C.ar  312  TYR312     -0.0198
    179  CD1       30.5440   15.0010   13.0430 C.ar  312  TYR312     -0.0009
    180  CD2       32.4900   16.3810   12.9650 C.ar  312  TYR312     -0.0009
    181  CE1       29.7780   16.0440   12.5280 C.ar  312  TYR312      0.0417
    182  CE2       31.7320   17.4250   12.4240 C.ar  312  TYR312      0.0417
    183  CZ        30.3750   17.2500   12.2140 C.ar  312  TYR312      0.1957
    184  OH        29.6050   18.2730   11.6830 O.3   312  TYR312     -0.2866
@<TRIPOS>BOND
     1    98    97    2
     2    97    96    1
     3    96    95    1
     4    96    99    1
     5     4     3    2
     6   132   133    1
     7    99   100    1
     8     3     2    1
     9   101   100   ar
    10   101   103   ar
    11   141   139   ar
    12   141   142   ar
    13     1     2    1
    14   120   121    2
    15   120   119    1
    16   100   102   ar
    17   139   137   ar
    18   107   108    1
    19   142   140   ar
    20     2     5    1
    21   133   134    1
    22   133   136    1
    23   103   105   ar
    24     8    10   ar
    25     8     6   ar
    26     5     6    1
    27   118   119    1
    28   118   109   am
    29   137   136    1
    30   137   138   ar
    31    10    11   ar
    32   134   135    2
    33   140   138   ar
    34   119   122    1
    35   102   104   ar
    36     6     7   ar
    37   108   109    1
    38   108   111    1
    39   122   123    1
    40   105   104   ar
    41   105   106    1
    42   109   110    2
    43    15    16    2
    44    15    14    1
    45    13    19    1
    46    13    14    1
    47   124   123   ar
    48   124   126   ar
    49   184   183    1
    50    11    12    1
    51    11     9   ar
    52   111   112    1
    53   123   125   ar
    54   112   113    1
    55    19    18    1
    56   117   115    1
    57     7     9   ar
    58   183   182   ar
    59   183   181   ar
    60    14    17    1
    61   114   113    1
    62   114   115    2
    63   182   180   ar
    64   181   179   ar
    65   126   127   ar
    66   115   116    1
    67   180   178   ar
    68   179   178   ar
    69    17    18    1
    70   178   177    1
    71   125   127   ar
    72   125   128   ar
    73   127   129   ar
    74   177   174    1
    75   165   164    1
    76    93    92    2
    77   153   151   ar
    78   153   152   ar
    79   128   130   ar
    80   151   149   ar
    81   129   131   ar
    82   174   175    1
    83   174   173    1
    84   152   150   ar
    85   164   162   ar
    86   164   163   ar
    87    92    94   am
    88    92    91    1
    89   175   176    2
    90   130   131   ar
    91   162   160   ar
    92   163   161   ar
    93    87    88    1
    94    88    91    1
    95    88    89    1
    96   173   168   am
    97   149   148   ar
    98    51    50   ar
    99    51    49   ar
   100   150   148   ar
   101   169   168    2
   102   168   167    1
   103    27    25    1
   104    50    48   ar
   105   171   170    1
   106   171   172    1
   107    89    90    2
   108   148   147    1
   109    49    47   ar
   110   160   159   ar
   111    23    22    2
   112   161   159   ar
   113   170   167    1
   114    22    21    1
   115    25    24    1
   116    25    26    1
   117   167   166    1
   118   172   166    1
   119    45    44    2
   120   159   158    1
   121    48    47   ar
   122    24    21    1
   123    47    46    1
   124   143   144    1
   125   166   156   am
   126   147   144    1
   127    21    20    1
   128   145   144    1
   129   145   146    2
   130    72    71    1
   131    44    43    1
   132    44    52   am
   133   156   157    2
   134   156   155    1
   135    43    46    1
   136    43    42    1
   137   158   155    1
   138    56    57    1
   139    56    53    1
   140    40    41   ar
   141    40    38   ar
   142    71    70    1
   143   155   154    1
   144    41    39   ar
   145    53    52    1
   146    53    54    1
   147    64    63    1
   148    64    58    1
   149    79    78    1
   150    63    62    1
   151    38    35   ar
   152    86    85    1
   153    39    37   ar
   154    70    69    1
   155    58    54   am
   156    58    59    1
   157    54    55    2
   158    35    37   ar
   159    35    33   ar
   160    78    77    1
   161    78    80    1
   162    85    82    1
   163    37    36   ar
   164    77    74    1
   165    62    59    1
   166    69    66    1
   167    59    60    1
   168    65    66    1
   169    65    60   am
   170    33    32    1
   171    33    34   ar
   172    36    34   ar
   173    32    29    1
   174    82    81    1
   175    82    83    1
   176    29    28    1
   177    29    30    1
   178    81    75   am
   179    66    67    1
   180    60    61    2
   181    75    74    1
   182    75    76    2
   183    74    73    1
   184    68    67    2
   185    84    83    2
   186    30    31    2
