@<TRIPOS>MOLECULE
tmp/1zq9A00.pdb
 195 189 0 0 0
SMALL
GASTEIGER

@<TRIPOS>ATOM
      1  N         -8.0220   36.3950   -2.4380 N.3     1  GLN1       -0.1231
      2  CA        -7.2010   37.3540   -1.6300 C.3     1  GLN1        0.1698
      3  C         -7.9390   37.8180   -0.3730 C.2     1  GLN1        0.2592
      4  O         -8.6500   38.8270   -0.3800 O.2     1  GLN1       -0.2718
      5  CB        -6.7460   38.5390   -2.4760 C.3     1  GLN1        0.0381
      6  CG        -5.7050   38.2550   -3.5320 C.3     1  GLN1        0.0905
      7  CD        -4.3440   38.0520   -2.8970 C.2     1  GLN1        0.2608
      8  OE1       -3.7390   38.9750   -2.3640 O.2     1  GLN1       -0.2717
      9  NE2       -3.7780   36.8700   -2.8720 N.am    1  GLN1       -0.0878
     10  N         -7.7700   37.0580    0.7000 N.am    2  HIS2       -0.1962
     11  CA        -8.3930   37.3600    1.9830 C.3     2  HIS2        0.1787
     12  C         -7.3410   37.9530    2.9000 C.2     2  HIS2        0.2620
     13  O         -6.4460   37.2420    3.3600 O.2     2  HIS2       -0.2715
     14  CB        -9.0140   36.0880    2.5560 C.3     2  HIS2        0.0785
     15  CG        -9.9410   35.4030    1.5950 C.ar    2  HIS2        0.0821
     16  ND1       -9.5910   34.2670    0.8960 N.ar    2  HIS2       -0.2267
     17  CD2      -11.1890   35.7240    1.1830 C.ar    2  HIS2        0.1154
     18  CE1      -10.5980   33.9070    0.1130 C.ar    2  HIS2        0.1986
     19  NE2      -11.5810   34.7730    0.2730 N.ar    2  HIS2       -0.2212
     20  N         -7.4610   39.2580    3.1470 N.am    3  ILE3       -0.1977
     21  CA        -6.4870   40.0300    3.8940 C.3     3  ILE3        0.1596
     22  C         -6.7130   39.8670    5.3820 C.2     3  ILE3        0.2287
     23  O         -7.7810   40.2140    5.8900 O.2     3  ILE3       -0.2864
     24  CB        -6.5630   41.5510    3.5390 C.3     3  ILE3        0.0276
     25  CG1       -6.2970   41.7790    2.0480 C.3     3  ILE3        0.0022
     26  CG2       -5.6070   42.3930    4.4480 C.3     3  ILE3        0.0022
     27  CD1       -5.0360   41.1260    1.5250 C.3     3  ILE3        0.0001
     28  N          5.2700   34.9700    2.6580 N.3    28  VAL28      -0.1231
     29  CA         4.6480   34.5430    1.4100 C.3    28  VAL28       0.1692
     30  C          3.2060   35.0120    1.4560 C.2    28  VAL28       0.2592
     31  O          2.4890   34.7420    2.4220 O.2    28  VAL28      -0.2718
     32  CB         4.7560   33.0000    1.2090 C.3    28  VAL28       0.0266
     33  CG1        4.0050   32.5640   -0.0330 C.3    28  VAL28       0.0020
     34  CG2        6.2440   32.5900    1.1060 C.3    28  VAL28       0.0020
     35  N          2.8080   35.7630    0.4330 N.am   29  GLY29      -0.1957
     36  CA         1.4530   36.3210    0.3600 C.3    29  GLY29       0.1869
     37  C          1.2700   37.5030    1.3080 C.2    29  GLY29       0.2309
     38  O          0.3880   37.4880    2.1570 O.2    29  GLY29      -0.2863
     39  N         -0.1090   40.2760    1.0780 N.3    31  GLY31      -0.1225
     40  CA        -1.3370   41.0630    0.9060 C.3    31  GLY31       0.1811
     41  C         -1.0740   42.5660    0.8260 C.2    31  GLY31       0.2280
     42  O         -0.3120   43.0300   -0.0210 O.2    31  GLY31      -0.2866
     43  N          7.2470   37.4630   -0.8210 N.3    49  CYS49      -0.1221
     44  CA         7.0100   36.7890   -2.0920 C.3    49  CYS49       0.1808
     45  C          5.5620   37.0060   -2.4650 C.2    49  CYS49       0.2601
     46  O          4.6730   36.6230   -1.7010 O.2    49  CYS49      -0.2717
     47  CB         7.2660   35.2850   -1.9570 C.3    49  CYS49       0.0970
     48  SG         8.9800   34.9310   -1.6250 S.3    49  CYS49      -0.0800
     49  N          5.3440   37.6890   -3.5910 N.am   50  GLU50      -0.1965
     50  CA         4.0070   38.1830   -3.9720 C.3    50  GLU50       0.1733
     51  C          3.7650   38.0330   -5.4880 C.2    50  GLU50       0.2616
     52  O          4.5800   38.4580   -6.3090 O.2    50  GLU50      -0.2715
     53  CB         3.8030   39.6540   -3.5280 C.3    50  GLU50       0.0429
     54  CG         2.4860   40.3230   -4.0380 C.3    50  GLU50       0.1163
     55  CD         1.2390   39.5360   -3.6580 C.2    50  GLU50       0.3649
     56  OE1        1.0810   39.1850   -2.4660 O.co2  50  GLU50      -0.2457
     57  OE2        0.4130   39.2570   -4.5530 O.co2  50  GLU50      -0.2457
     58  N          2.6400   37.4020   -5.8270 N.am   51  LEU51      -0.1963
     59  CA         2.2740   37.1000   -7.2070 C.3    51  LEU51       0.1728
     60  C          1.8680   38.3350   -8.0010 C.2    51  LEU51       0.2616
     61  O          2.2840   38.5000   -9.1500 O.2    51  LEU51      -0.2715
     62  CB         1.0930   36.1330   -7.1970 C.3    51  LEU51       0.0311
     63  CG         0.5550   35.5950   -8.5360 C.3    51  LEU51       0.0022
     64  CD1        1.6530   34.9980   -9.4270 C.3    51  LEU51       0.0001
     65  CD2       -0.4950   34.5380   -8.1940 C.3    51  LEU51       0.0001
     66  N          1.0440   39.1650   -7.3720 N.am   52  ASP52      -0.1971
     67  CA         0.3620   40.2950   -8.0240 C.3    52  ASP52       0.1709
     68  C          1.2680   41.5310   -8.0520 C.2    52  ASP52       0.2293
     69  O          1.5590   42.0900   -6.9930 O.2    52  ASP52      -0.2864
     70  CB        -0.9040   40.6250   -7.2490 C.3    52  ASP52       0.1436
     71  CG        -1.7980   41.6570   -7.9730 C.2    52  ASP52       0.3671
     72  OD1       -1.3250   42.3550   -8.9020 O.co2  52  ASP52      -0.2456
     73  OD2       -2.9810   41.7710   -7.5940 O.co2  52  ASP52      -0.2456
     74  N          0.1140   44.5550   -5.9810 N.3    55  LEU55      -0.1245
     75  CA         0.2970   44.4570   -4.5290 C.3    55  LEU55       0.1561
     76  C          1.7840   44.6590   -4.1860 C.2    55  LEU55       0.2260
     77  O          2.1100   45.2160   -3.1390 O.2    55  LEU55      -0.2867
     78  CB        -0.2540   43.1150   -3.9880 C.3    55  LEU55       0.0270
     79  CG        -1.7850   42.9550   -3.9060 C.3    55  LEU55       0.0019
     80  CD1       -2.1340   41.5950   -3.2850 C.3    55  LEU55       0.0001
     81  CD2       -2.3920   44.0380   -3.0800 C.3    55  LEU55       0.0001
     82  N          6.1670   37.2920   -8.3050 N.3    77  GLY77      -0.1210
     83  CA         5.8230   36.1240   -9.0900 C.3    77  GLY77       0.1956
     84  C          5.2580   34.9880   -8.2720 C.2    77  GLY77       0.2612
     85  O          5.0630   35.1080   -7.0610 O.2    77  GLY77      -0.2717
     86  N          4.9800   33.8830   -8.9610 N.am   78  ASP78      -0.1959
     87  CA         4.5420   32.6480   -8.3180 C.3    78  ASP78       0.1840
     88  C          5.6610   32.0160   -7.4360 C.2    78  ASP78       0.2621
     89  O          6.6850   31.5420   -7.9350 O.2    78  ASP78      -0.2715
     90  CB         4.0440   31.6870   -9.4230 C.3    78  ASP78       0.1450
     91  CG         3.6580   30.3100   -8.8950 C.2    78  ASP78       0.3671
     92  OD1        3.6230   30.0750   -7.6500 O.co2  78  ASP78      -0.2456
     93  OD2        3.3840   29.4590   -9.7620 O.co2  78  ASP78      -0.2456
     94  N          5.4470   32.0280   -6.1170 N.am   79  VAL79      -0.1977
     95  CA         6.3850   31.4510   -5.1510 C.3    79  VAL79       0.1596
     96  C          6.7710   29.9950   -5.4750 C.2    79  VAL79       0.2287
     97  O          7.9030   29.5680   -5.2290 O.2    79  VAL79      -0.2864
     98  CB         5.8480   31.5850   -3.6710 C.3    79  VAL79       0.0276
     99  CG1        4.6500   30.6410   -3.4030 C.3    79  VAL79       0.0022
    100  CG2        6.9610   31.3570   -2.6550 C.3    79  VAL79       0.0022
    101  N          0.4210   33.4180    4.3350 N.3    93  ASN93      -0.1225
    102  CA        -1.0300   33.4660    4.2580 C.3    93  ASN93       0.1785
    103  C         -1.2920   33.3080    2.7810 C.2    93  ASN93       0.2597
    104  O         -1.3730   34.2810    2.0500 O.2    93  ASN93      -0.2718
    105  CB        -1.5610   34.8080    4.8170 C.3    93  ASN93       0.1169
    106  CG        -3.0980   34.9030    4.8140 C.2    93  ASN93       0.2627
    107  OD1       -3.8010   33.9300    5.1010 O.2    93  ASN93      -0.2716
    108  ND2       -3.6170   36.0860    4.4880 N.am   93  ASN93      -0.0877
    109  N         -1.3470   32.0620    2.3220 N.am   94  LEU94      -0.1966
    110  CA        -1.5080   31.8130    0.8880 C.3    94  LEU94       0.1713
    111  C         -2.9090   31.2730    0.6320 C.2    94  LEU94       0.2458
    112  O         -3.5250   30.7270    1.5470 O.2    94  LEU94      -0.2730
    113  CB        -0.4580   30.8150    0.3550 C.3    94  LEU94       0.0310
    114  CG         0.9010   30.5110    1.0050 C.3    94  LEU94       0.0022
    115  CD1        0.7650   29.5430    2.2170 C.3    94  LEU94       0.0001
    116  CD2        1.8040   29.9190   -0.0400 C.3    94  LEU94       0.0001
    117  N         -3.4160   31.4260   -0.6120 N.am   95  PRO95      -0.2716
    118  CA        -4.7130   30.8520   -0.9830 C.3    95  PRO95       0.1536
    119  C         -4.6930   29.3320   -0.8080 C.2    95  PRO95       0.2598
    120  O         -3.6390   28.7230   -0.9660 O.2    95  PRO95      -0.2715
    121  CB        -4.8250   31.1840   -2.4810 C.3    95  PRO95       0.0310
    122  CG        -3.8980   32.3100   -2.7000 C.3    95  PRO95       0.0237
    123  CD        -2.7820   32.1230   -1.7490 C.3    95  PRO95       0.0939
    124  N         -5.8420   28.7390   -0.4940 N.am   96  TYR96      -0.1974
    125  CA        -5.9420   27.2960   -0.3460 C.3    96  TYR96       0.1639
    126  C         -5.4210   26.5450   -1.5740 C.2    96  TYR96       0.2290
    127  O         -4.9010   25.4460   -1.4550 O.2    96  TYR96      -0.2864
    128  CB        -7.3850   26.8820   -0.0410 C.3    96  TYR96       0.0560
    129  CG        -8.2990   26.7620   -1.2530 C.ar   96  TYR96      -0.0198
    130  CD1       -8.3310   25.5840   -2.0100 C.ar   96  TYR96      -0.0009
    131  CD2       -9.1530   27.8130   -1.6280 C.ar   96  TYR96      -0.0009
    132  CE1       -9.1710   25.4550   -3.1300 C.ar   96  TYR96       0.0417
    133  CE2      -10.0080   27.6920   -2.7460 C.ar   96  TYR96       0.0417
    134  CZ       -10.0030   26.5040   -3.4910 C.ar   96  TYR96       0.1957
    135  OH       -10.8260   26.3550   -4.5950 O.3    96  TYR96      -0.2866
    136  N         -2.8770   26.7410   -3.3610 N.3    98  ILE98      -0.1245
    137  CA        -1.4470   26.4140   -3.3950 C.3    98  ILE98       0.1561
    138  C         -0.9000   25.8700   -2.0600 C.2    98  ILE98       0.2260
    139  O          0.3020   25.7030   -1.9090 O.2    98  ILE98      -0.2867
    140  CB        -0.6070   27.6130   -3.8920 C.3    98  ILE98       0.0252
    141  CG1       -0.6590   28.7690   -2.9050 C.3    98  ILE98       0.0019
    142  CG2       -1.0940   28.0450   -5.3340 C.3    98  ILE98       0.0019
    143  CD1        0.6110   29.6570   -2.9480 C.3    98  ILE98       0.0001
    144  N         -0.8780   30.1740    7.6970 N.3   119  MET119     -0.1230
    145  CA        -2.3470   30.2040    7.7280 C.3   119  MET119      0.1702
    146  C         -2.9130   29.3080    6.6350 C.2   119  MET119      0.2592
    147  O         -2.5440   29.4430    5.4700 O.2   119  MET119     -0.2718
    148  CB        -2.8960   31.6390    7.5450 C.3   119  MET119      0.0401
    149  CG        -4.4190   31.7540    7.7650 C.3   119  MET119      0.0596
    150  SD        -4.8730   31.8530    9.5020 S.3   119  MET119     -0.1393
    151  CE        -4.4440   33.6090    9.7550 C.3   119  MET119      0.0692
    152  N         -3.7880   28.3860    7.0290 N.am  120  PHE120     -0.1962
    153  CA        -4.4180   27.4230    6.1250 C.3   120  PHE120      0.1771
    154  C         -5.9100   27.3500    6.4070 C.2   120  PHE120      0.2619
    155  O         -6.3720   27.7940    7.4600 O.2   120  PHE120     -0.2715
    156  CB        -3.8590   26.0000    6.3730 C.3   120  PHE120      0.0574
    157  CG        -2.4300   25.8130    5.9580 C.ar  120  PHE120     -0.0200
    158  CD1       -2.0370   26.0660    4.6720 C.ar  120  PHE120     -0.0042
    159  CD2       -1.4900   25.3500    6.8820 C.ar  120  PHE120     -0.0042
    160  CE1       -0.7160   25.8740    4.2860 C.ar  120  PHE120     -0.0003
    161  CE2       -0.1700   25.1550    6.5220 C.ar  120  PHE120     -0.0003
    162  CZ         0.2230   25.4080    5.2200 C.ar  120  PHE120     -0.0000
    163  N         -6.6670   26.7550    5.4900 N.am  121  GLN121     -0.1977
    164  CA        -8.0660   26.4530    5.7540 C.3   121  GLN121      0.1601
    165  C         -8.0900   25.4380    6.8750 C.2   121  GLN121      0.2287
    166  O         -7.1910   24.6210    6.9700 O.2   121  GLN121     -0.2864
    167  CB        -8.7220   25.8350    4.5130 C.3   121  GLN121      0.0394
    168  CG        -8.9370   26.8600    3.3870 C.3   121  GLN121      0.0908
    169  CD        -9.6710   26.3160    2.1640 C.2   121  GLN121      0.2608
    170  OE1       -9.6350   25.1170    1.8630 O.2   121  GLN121     -0.2717
    171  NE2      -10.3380   27.2060    1.4540 N.am  121  GLN121     -0.0878
    172  N        -10.7680   38.3140    8.2530 N.3   161  PHE161     -0.1241
    173  CA       -10.2240   38.6140    6.9360 C.3   161  PHE161      0.1605
    174  C        -11.1590   39.5460    6.1870 C.2   161  PHE161      0.2264
    175  O        -12.3650   39.5630    6.4310 O.2   161  PHE161     -0.2867
    176  CB       -10.0750   37.3510    6.0910 C.3   161  PHE161      0.0534
    177  CG        -9.2280   36.2610    6.7360 C.ar  161  PHE161     -0.0203
    178  CD1       -7.8680   36.1560    6.4420 C.ar  161  PHE161     -0.0042
    179  CD2       -9.8010   35.3510    7.6100 C.ar  161  PHE161     -0.0042
    180  CE1       -7.0940   35.1350    6.9890 C.ar  161  PHE161     -0.0003
    181  CE2       -9.0320   34.3420    8.2020 C.ar  161  PHE161     -0.0003
    182  CZ        -7.6690   34.2300    7.8750 C.ar  161  PHE161     -0.0000
    183  N        -13.1180   34.6060    3.9360 N.3   165  PRO165     -0.2116
    184  CA       -13.2580   33.3780    3.1500 C.3   165  PRO165      0.1372
    185  C        -14.5450   32.6240    3.5370 C.2   165  PRO165      0.2244
    186  O        -15.2530   33.0500    4.4650 O.2   165  PRO165     -0.2868
    187  CB       -11.9870   32.5950    3.5120 C.3   165  PRO165      0.0268
    188  CG       -11.7040   33.0160    4.9180 C.3   165  PRO165      0.0207
    189  CD       -12.0880   34.4850    4.9860 C.3   165  PRO165      0.0892
    190  N        -10.2790   29.2250    9.2940 N.3   169  SER169     -0.1217
    191  CA        -8.8500   29.0550    9.0840 C.3   169  SER169      0.1889
    192  C         -8.1510   28.6270   10.3750 C.2   169  SER169      0.2288
    193  O         -8.7390   28.6530   11.4610 O.2   169  SER169     -0.2866
    194  CB        -8.2290   30.3640    8.5920 C.3   169  SER169      0.2089
    195  OG        -8.8560   30.7620    7.3880 O.3   169  SER169     -0.2183
@<TRIPOS>BOND
     1    93    91   ar
     2    64    63    1
     3    90    91    1
     4    90    87    1
     5    61    60    2
     6    83    82    1
     7    83    84    1
     8    86    87    1
     9    86    84   am
    10    72    71   ar
    11    91    92   ar
    12    63    65    1
    13    63    62    1
    14    87    88    1
    15    84    85    2
    16    68    67    1
    17    68    69    2
    18    67    66    1
    19    67    70    1
    20    60    66   am
    21    60    59    1
    22    71    73   ar
    23    71    70    1
    24    89    88    2
    25    88    94   am
    26    59    62    1
    27    59    58    1
    28    52    51    2
    29    94    95    1
    30    74    75    1
    31    58    51   am
    32    51    50    1
    33    96    97    2
    34    96    95    1
    35   142   140    1
    36    95    98    1
    37   135   134    1
    38    57    55   ar
    39    75    76    1
    40    75    78    1
    41    76    77    2
    42    54    55    1
    43    54    53    1
    44    78    79    1
    45    50    49    1
    46    50    53    1
    47    79    80    1
    48    79    81    1
    49   140   137    1
    50   140   141    1
    51    98    99    1
    52    98   100    1
    53    55    56   ar
    54    49    45   am
    55     6     7    1
    56     6     5    1
    57   134   132   ar
    58   134   133   ar
    59   137   136    1
    60   137   138    1
    61   132   130   ar
    62   143   141    1
    63     7     9   am
    64     7     8    2
    65   133   131   ar
    66   122   121    1
    67   122   123    1
    68   121   118    1
    69     5     2    1
    70    45    44    1
    71    45    46    2
    72     1     2    1
    73    44    47    1
    74    44    43    1
    75   138   139    2
    76   130   129   ar
    77    47    48    1
    78   123   117    1
    79     2     3    1
    80   131   129   ar
    81   126   127    2
    82   126   125    1
    83   129   128    1
    84   118   119    1
    85   118   117    1
    86   120   119    2
    87   119   124   am
    88   117   111   am
    89   124   125    1
    90     4     3    2
    91     3    10   am
    92   125   128    1
    93   116   114    1
    94    33    32    1
    95    42    41    2
    96    18    19   ar
    97    18    16   ar
    98    19    17   ar
    99   113   110    1
   100   113   114    1
   101    36    35    1
   102    36    37    1
   103    35    30   am
   104   111   110    1
   105   111   112    2
   106    10    11    1
   107    41    40    1
   108   110   109    1
   109    16    15   ar
   110    40    39    1
   111   114   115    1
   112    34    32    1
   113    17    15   ar
   114    32    29    1
   115    37    38    2
   116    29    30    1
   117    29    28    1
   118   171   169   am
   119    30    31    2
   120    27    25    1
   121    15    14    1
   122   170   169    2
   123    11    14    1
   124    11    12    1
   125    25    24    1
   126   104   103    2
   127   169   168    1
   128   109   103   am
   129   103   102    1
   130    12    20   am
   131    12    13    2
   132    20    21    1
   133   184   187    1
   134   184   185    1
   135   184   183    1
   136   168   167    1
   137   187   188    1
   138   185   186    2
   139    24    21    1
   140    24    26    1
   141    21    22    1
   142   183   189    1
   143   102   101    1
   144   102   105    1
   145   160   158   ar
   146   160   162   ar
   147   108   106   am
   148   167   164    1
   149   158   157   ar
   150   106   105    1
   151   106   107    2
   152   188   189    1
   153   162   161   ar
   154    22    23    2
   155   147   146    2
   156   163   164    1
   157   163   154   am
   158   164   165    1
   159   157   156    1
   160   157   159   ar
   161   176   177    1
   162   176   173    1
   163   153   156    1
   164   153   154    1
   165   153   152    1
   166   174   175    2
   167   174   173    1
   168   154   155    2
   169   178   177   ar
   170   178   180   ar
   171   161   159   ar
   172   146   152   am
   173   146   145    1
   174   177   179   ar
   175   165   166    2
   176   173   172    1
   177   180   182   ar
   178   195   194    1
   179   148   145    1
   180   148   149    1
   181   179   181   ar
   182   144   145    1
   183   149   150    1
   184   182   181   ar
   185   194   191    1
   186   191   190    1
   187   191   192    1
   188   150   151    1
   189   192   193    2
