@<TRIPOS>MOLECULE
tmp/1zrbA01.pdb
 212 215 0 0 0
SMALL
GASTEIGER

@<TRIPOS>ATOM
      1  N         22.5790   -6.8060   18.1780 N.3    69  HIS69      -0.1241
      2  CA        22.4710   -8.1660   17.6680 C.3    69  HIS69       0.1621
      3  C         21.7410   -8.2660   16.3320 C.2    69  HIS69       0.2264
      4  O         21.8280   -9.2860   15.6440 O.2    69  HIS69      -0.2867
      5  CB        21.8290   -9.0930   18.7110 C.3    69  HIS69       0.0745
      6  CG        20.3360   -9.1270   18.6710 C.ar   69  HIS69       0.0817
      7  ND1       19.5490   -8.4440   19.5780 N.ar   69  HIS69      -0.2268
      8  CD2       19.4770   -9.7880   17.8590 C.ar   69  HIS69       0.1154
      9  CE1       18.2790   -8.6850   19.3260 C.ar   69  HIS69       0.1986
     10  NE2       18.2050   -9.5000   18.2860 N.ar   69  HIS69      -0.2212
     11  N         25.7750  -10.8440   15.1200 N.3    73  TYR73      -0.1241
     12  CA        25.4730  -11.9550   16.0100 C.3    73  TYR73       0.1605
     13  C         26.1020  -13.2520   15.4980 C.2    73  TYR73       0.2264
     14  O         25.4420  -14.0730   14.8580 O.2    73  TYR73      -0.2867
     15  CB        23.9610  -12.1350   16.1700 C.3    73  TYR73       0.0534
     16  CG        23.6200  -13.0210   17.3390 C.ar   73  TYR73      -0.0201
     17  CD1       24.0040  -12.6700   18.6260 C.ar   73  TYR73      -0.0009
     18  CD2       22.9660  -14.2310   17.1560 C.ar   73  TYR73      -0.0009
     19  CE1       23.7540  -13.5040   19.7020 C.ar   73  TYR73       0.0417
     20  CE2       22.7110  -15.0710   18.2250 C.ar   73  TYR73       0.0417
     21  CZ        23.1110  -14.7010   19.4950 C.ar   73  TYR73       0.1957
     22  OH        22.8880  -15.5410   20.5590 O.3    73  TYR73      -0.2866
     23  N         26.7570  -16.2300   16.6470 N.3    75  PRO75      -0.2102
     24  CA        26.1230  -17.5480   16.7590 C.3    75  PRO75       0.1504
     25  C         25.2450  -17.9450   15.5710 C.2    75  PRO75       0.2575
     26  O         25.1690  -19.1210   15.2200 O.2    75  PRO75      -0.2718
     27  CB        25.3360  -17.4380   18.0610 C.3    75  PRO75       0.0282
     28  CG        26.2250  -16.5740   18.8930 C.3    75  PRO75       0.0208
     29  CD        26.6230  -15.4820   17.9130 C.3    75  PRO75       0.0893
     30  N         24.5720  -16.9720   14.9600 N.am   76  TRP76      -0.1977
     31  CA        23.7170  -17.2550   13.8070 C.3    76  TRP76       0.1640
     32  C         24.3560  -16.7750   12.5000 C.2    76  TRP76       0.2290
     33  O         23.6680  -16.6090   11.4930 O.2    76  TRP76      -0.2864
     34  CB        22.3490  -16.5820   13.9610 C.3    76  TRP76       0.0576
     35  CG        21.5340  -17.0150   15.1550 C.ar   76  TRP76       0.0006
     36  CD1       21.7070  -18.1320   15.9200 C.ar   76  TRP76       0.0946
     37  CD2       20.3790  -16.3460   15.6800 C.ar   76  TRP76       0.0152
     38  NE1       20.7310  -18.2010   16.8900 N.ar   76  TRP76      -0.2442
     39  CE2       19.9040  -17.1140   16.7630 C.ar   76  TRP76       0.0810
     40  CE3       19.7010  -15.1710   15.3370 C.ar   76  TRP76       0.0012
     41  CZ2       18.7830  -16.7430   17.5060 C.ar   76  TRP76       0.0191
     42  CZ3       18.5900  -14.8070   16.0740 C.ar   76  TRP76       0.0001
     43  CH2       18.1430  -15.5890   17.1460 C.ar   76  TRP76       0.0015
     44  N         27.9850  -10.2310   22.7130 N.3   118  TRP118     -0.1227
     45  CA        27.1950  -11.2000   21.9660 C.3   118  TRP118      0.1737
     46  C         27.4390  -12.6440   22.3730 C.2   118  TRP118      0.2595
     47  O         26.6040  -13.5110   22.1150 O.2   118  TRP118     -0.2718
     48  CB        27.4660  -11.0730   20.4690 C.3   118  TRP118      0.0564
     49  CG        28.9240  -11.1140   20.0880 C.ar  118  TRP118      0.0003
     50  CD1       29.7440  -10.0440   19.8650 C.ar  118  TRP118      0.0946
     51  CD2       29.7140  -12.2830   19.8360 C.ar  118  TRP118      0.0152
     52  NE1       30.9920  -10.4750   19.4810 N.ar  118  TRP118     -0.2442
     53  CE2       30.9990  -11.8460   19.4540 C.ar  118  TRP118      0.0810
     54  CE3       29.4580  -13.6570   19.8910 C.ar  118  TRP118      0.0012
     55  CZ2       32.0260  -12.7330   19.1300 C.ar  118  TRP118      0.0191
     56  CZ3       30.4760  -14.5360   19.5700 C.ar  118  TRP118      0.0001
     57  CH2       31.7440  -14.0710   19.1930 C.ar  118  TRP118      0.0015
     58  N         28.5710  -12.9180   23.0100 N.am  119  ARG119     -0.1966
     59  CA        28.8610  -14.2970   23.3790 C.3   119  ARG119      0.1729
     60  C         28.1990  -14.8150   24.6510 C.2   119  ARG119      0.2616
     61  O         28.1790  -16.0240   24.8760 O.2   119  ARG119     -0.2715
     62  CB        30.3810  -14.5210   23.4480 C.3   119  ARG119      0.0348
     63  CG        31.2330  -13.4740   24.1270 C.3   119  ARG119      0.0492
     64  CD        32.6960  -13.8980   24.2550 C.3   119  ARG119      0.2205
     65  NE        33.3710  -14.0530   22.9700 N.pl3 119  ARG119     -0.0865
     66  CZ        33.6810  -15.2260   22.4220 C.cat 119  ARG119      0.5346
     67  NH1       33.3770  -16.3580   23.0430 N.pl3 119  ARG119      0.1354
     68  NH2       34.3080  -15.2650   21.2530 N.pl3 119  ARG119      0.1354
     69  N         27.6260  -13.9340   25.4680 N.am  120  GLU120     -0.1963
     70  CA        27.0130  -14.4020   26.7060 C.3   120  GLU120      0.1733
     71  C         25.5450  -14.0450   26.9450 C.2   120  GLU120      0.2616
     72  O         24.6760  -14.9160   26.9300 O.2   120  GLU120     -0.2715
     73  CB        27.8320  -13.9170   27.9140 C.3   120  GLU120      0.0429
     74  CG        27.3990  -14.7090   29.1470 C.3   120  GLU120      0.1163
     75  CD        27.7890  -14.0430   30.4590 C.2   120  GLU120      0.3649
     76  OE1       28.8010  -13.3090   30.4930 O.co2 120  GLU120     -0.2457
     77  OE2       27.0810  -14.2680   31.4650 O.co2 120  GLU120     -0.2457
     78  N         25.2700  -12.7650   27.1620 N.am  121  ASN121     -0.1958
     79  CA        23.9110  -12.3290   27.4790 C.3   121  ASN121      0.1819
     80  C         23.4030  -11.0900   26.7400 C.2   121  ASN121      0.2621
     81  O         22.4810  -10.4290   27.2120 O.2   121  ASN121     -0.2715
     82  CB        23.8290  -12.0650   28.9790 C.3   121  ASN121      0.1195
     83  CG        24.8830  -11.0730   29.4470 C.2   121  ASN121      0.2630
     84  OD1       25.6190  -10.5040   28.6380 O.2   121  ASN121     -0.2716
     85  ND2       24.9590  -10.8600   30.7550 N.am  121  ASN121     -0.0877
     86  N         24.0030  -10.7630   25.6000 N.am  122  LEU122     -0.1977
     87  CA        23.5760   -9.5940   24.8310 C.3   122  LEU122      0.1596
     88  C         23.6750   -8.2810   25.6240 C.2   122  LEU122      0.2287
     89  O         22.8960   -7.3480   25.4020 O.2   122  LEU122     -0.2864
     90  CB        22.1370   -9.7980   24.3370 C.3   122  LEU122      0.0297
     91  CG        21.9320  -10.3660   22.9270 C.3   122  LEU122      0.0022
     92  CD1       22.9730  -11.4130   22.6120 C.3   122  LEU122      0.0001
     93  CD2       20.5250  -10.9410   22.8090 C.3   122  LEU122      0.0001
     94  N         20.1510  -16.8990   32.7170 N.3   197  ILE197     -0.1245
     95  CA        21.0470  -15.9450   32.0740 C.3   197  ILE197      0.1561
     96  C         21.3510  -14.8090   33.0470 C.2   197  ILE197      0.2260
     97  O         20.4640  -14.3390   33.7590 O.2   197  ILE197     -0.2867
     98  CB        20.3950  -15.3430   30.7940 C.3   197  ILE197      0.0252
     99  CG1       20.1230  -16.4490   29.7720 C.3   197  ILE197      0.0019
    100  CG2       21.3110  -14.3010   30.1700 C.3   197  ILE197      0.0019
    101  CD1       21.3830  -17.1150   29.2690 C.3   197  ILE197      0.0001
    102  N          4.2330   -9.8000   24.6530 N.3   217  ASP217     -0.1225
    103  CA         5.6840   -9.8900   24.6280 C.3   217  ASP217      0.1805
    104  C          6.1650   -9.5860   23.2140 C.2   217  ASP217      0.2598
    105  O          5.3780   -9.5820   22.2680 O.2   217  ASP217     -0.2718
    106  CB         6.1080  -11.3150   25.0210 C.3   217  ASP217      0.1424
    107  CG         7.6090  -11.4460   25.3120 C.2   217  ASP217      0.3668
    108  OD1        8.0850  -12.6010   25.4150 O.co2 217  ASP217     -0.2456
    109  OD2        8.2980  -10.4170   25.4440 O.co2 217  ASP217     -0.2456
    110  N          7.4520   -9.2980   23.0810 N.am  218  ALA218     -0.1966
    111  CA         8.0320   -9.0770   21.7750 C.3   218  ALA218      0.1728
    112  C          8.3330  -10.5030   21.3250 C.2   218  ALA218      0.2616
    113  O          8.1400  -11.4450   22.0920 O.2   218  ALA218     -0.2715
    114  CB         9.3170   -8.2900   21.8900 C.3   218  ALA218      0.0334
    115  N          8.8020  -10.6650   20.0950 N.am  219  CYS219     -0.1954
    116  CA         9.1390  -11.9870   19.5840 C.3   219  CYS219      0.1843
    117  C         10.1730  -11.7860   18.4820 C.2   219  CYS219      0.2625
    118  O         10.6390  -10.6570   18.2650 O.2   219  CYS219     -0.2714
    119  CB         7.8770  -12.6770   19.0500 C.3   219  CYS219      0.0997
    120  SG         7.9690  -14.4940   18.9150 S.3   219  CYS219     -0.0797
    121  N         10.5390  -12.8630   17.7900 N.am  220  GLU220     -0.1977
    122  CA        11.5330  -12.7680   16.7230 C.3   220  GLU220      0.1602
    123  C         11.0520  -11.7950   15.6490 C.2   220  GLU220      0.2287
    124  O          9.9150  -11.8860   15.1850 O.2   220  GLU220     -0.2864
    125  CB        11.7970  -14.1530   16.1120 C.3   220  GLU220      0.0415
    126  CG        13.0000  -14.0180   15.1870 C.3   220  GLU220      0.1163
    127  CD        13.5510  -15.3600   14.7330 C.2   220  GLU220      0.3649
    128  OE1       14.5380  -15.3680   13.9640 O.co2 220  GLU220     -0.2457
    129  OE2       12.9990  -16.4040   15.1510 O.co2 220  GLU220     -0.2457
    130  N         13.1150   -7.4310   17.6210 N.3   223  SER223     -0.1217
    131  CA        14.3970   -6.9520   18.1370 C.3   223  SER223      0.1889
    132  C         14.7680   -5.6440   17.4590 C.2   223  SER223      0.2288
    133  O         14.5190   -5.4700   16.2710 O.2   223  SER223     -0.2866
    134  CB        15.4910   -7.9910   17.8680 C.3   223  SER223      0.2089
    135  OG        15.2350   -9.2080   18.5520 O.3   223  SER223     -0.2183
    136  N         14.1450   -3.5010   22.2120 N.3   243  VAL243     -0.1231
    137  CA        13.7940   -4.9210   22.2620 C.3   243  VAL243      0.1692
    138  C         15.1040   -5.6780   22.0830 C.2   243  VAL243      0.2593
    139  O         15.8040   -5.4970   21.0810 O.2   243  VAL243     -0.2718
    140  CB        12.7960   -5.3030   21.1310 C.3   243  VAL243      0.0266
    141  CG1       12.4050   -6.7800   21.2390 C.3   243  VAL243      0.0020
    142  CG2       11.5510   -4.4280   21.2230 C.3   243  VAL243      0.0020
    143  N         15.4460   -6.5110   23.0640 N.am  244  SER244     -0.1938
    144  CA        16.7040   -7.2560   23.0240 C.3   244  SER244      0.2055
    145  C         16.5930   -8.7740   22.9810 C.2   244  SER244      0.2643
    146  O         16.9480   -9.3880   21.9810 O.2   244  SER244     -0.2714
    147  CB        17.5900   -6.8550   24.2110 C.3   244  SER244      0.2130
    148  OG        18.8470   -7.4950   24.1410 O.3   244  SER244     -0.2179
    149  N         16.1230   -9.3870   24.0600 N.am  245  TRP245     -0.1959
    150  CA        16.0310  -10.8450   24.0850 C.3   245  TRP245      0.1771
    151  C         14.9780  -11.4040   25.0180 C.2   245  TRP245      0.2620
    152  O         14.4590  -10.7110   25.8880 O.2   245  TRP245     -0.2715
    153  CB        17.3850  -11.4620   24.4760 C.3   245  TRP245      0.0590
    154  CG        17.8790  -11.0970   25.8760 C.ar  245  TRP245      0.0006
    155  CD1       18.5790   -9.9770   26.2340 C.ar  245  TRP245      0.0946
    156  CD2       17.7370  -11.8750   27.0760 C.ar  245  TRP245      0.0152
    157  NE1       18.8870  -10.0140   27.5740 N.ar  245  TRP245     -0.2442
    158  CE2       18.3830  -11.1670   28.1150 C.ar  245  TRP245      0.0810
    159  CE3       17.1310  -13.1000   27.3730 C.ar  245  TRP245      0.0012
    160  CZ2       18.4380  -11.6420   29.4270 C.ar  245  TRP245      0.0191
    161  CZ3       17.1880  -13.5720   28.6820 C.ar  245  TRP245      0.0001
    162  CH2       17.8390  -12.8430   29.6890 C.ar  245  TRP245      0.0015
    163  N         14.6820  -12.6840   24.8260 N.am  246  GLY246     -0.1940
    164  CA        13.7140  -13.3660   25.6590 C.3   246  GLY246      0.2014
    165  C         13.7860  -14.8480   25.3630 C.2   246  GLY246      0.2639
    166  O         14.1960  -15.2400   24.2710 O.2   246  GLY246     -0.2714
    167  N         13.4220  -15.6710   26.3410 N.am  247  GLU247     -0.1963
    168  CA        13.4260  -17.1170   26.1690 C.3   247  GLU247      0.1733
    169  C         12.0470  -17.4840   25.6460 C.2   247  GLU247      0.2617
    170  O         11.0840  -17.5530   26.4030 O.2   247  GLU247     -0.2715
    171  CB        13.7050  -17.8040   27.5070 C.3   247  GLU247      0.0429
    172  CG        15.1770  -17.4870   27.7510 C.3   247  GLU247      0.1163
    173  CD        15.6680  -17.9680   29.1050 C.2   247  GLU247      0.3649
    174  OE1       15.3320  -17.3280   30.1250 O.co2 247  GLU247     -0.2457
    175  OE2       16.3810  -18.9940   29.1440 O.co2 247  GLU247     -0.2457
    176  N         11.9620  -17.7090   24.3390 N.am  248  GLY248     -0.1940
    177  CA        10.6860  -18.0170   23.7240 C.3   248  GLY248      0.2014
    178  C          9.9500  -16.6970   23.5440 C.2   248  GLY248      0.2639
    179  O         10.5800  -15.6390   23.5140 O.2   248  GLY248     -0.2714
    180  N          8.6270  -16.7550   23.4350 N.am  249  CYS249     -0.1967
    181  CA         7.8030  -15.5590   23.2720 C.3   249  CYS249      0.1712
    182  C          6.5320  -15.6930   24.1000 C.2   249  CYS249      0.2296
    183  O          5.7680  -16.6440   23.9290 O.2   249  CYS249     -0.2864
    184  CB         7.4170  -15.3530   21.7980 C.3   249  CYS249      0.0983
    185  SG         8.8160  -15.0890   20.6680 S.3   249  CYS249     -0.0798
    186  N         10.3900  -10.2930   28.6820 N.3   256  GLY256     -0.1210
    187  CA        11.1750   -9.7570   27.5940 C.3   256  GLY256      0.1956
    188  C         12.2400   -8.8680   28.2000 C.2   256  GLY256      0.2612
    189  O         11.9860   -8.1780   29.1870 O.2   256  GLY256     -0.2717
    190  N         13.4410   -8.8810   27.6350 N.am  257  PHE257     -0.1962
    191  CA        14.5060   -8.0490   28.1650 C.3   257  PHE257      0.1771
    192  C         14.8320   -6.9420   27.1860 C.2   257  PHE257      0.2619
    193  O         14.9150   -7.1670   25.9810 O.2   257  PHE257     -0.2715
    194  CB        15.7470   -8.8950   28.4990 C.3   257  PHE257      0.0574
    195  CG        15.6080   -9.6810   29.7720 C.ar  257  PHE257     -0.0200
    196  CD1       14.7970  -10.8070   29.8250 C.ar  257  PHE257     -0.0042
    197  CD2       16.2220   -9.2480   30.9370 C.ar  257  PHE257     -0.0042
    198  CE1       14.6060  -11.4880   31.0220 C.ar  257  PHE257     -0.0003
    199  CE2       16.0370   -9.9250   32.1360 C.ar  257  PHE257     -0.0003
    200  CZ        15.2230  -11.0400   32.1760 C.ar  257  PHE257     -0.0000
    201  N         15.0090   -5.7430   27.7240 N.am  258  TYR258     -0.1974
    202  CA        15.2660   -4.5800   26.9070 C.3   258  TYR258      0.1639
    203  C         16.5350   -3.8440   27.2840 C.2   258  TYR258      0.2290
    204  O         16.8620   -3.7170   28.4590 O.2   258  TYR258     -0.2864
    205  CB        14.0760   -3.6160   27.0040 C.3   258  TYR258      0.0560
    206  CG        12.7450   -4.2500   26.6660 C.ar  258  TYR258     -0.0198
    207  CD1       12.1160   -5.1240   27.5550 C.ar  258  TYR258     -0.0009
    208  CD2       12.1450   -4.0260   25.4310 C.ar  258  TYR258     -0.0009
    209  CE1       10.9360   -5.7570   27.2110 C.ar  258  TYR258      0.0417
    210  CE2       10.9750   -4.6520   25.0870 C.ar  258  TYR258      0.0417
    211  CZ        10.3730   -5.5150   25.9750 C.ar  258  TYR258      0.1957
    212  OH         9.1960   -6.1320   25.6140 O.3   258  TYR258     -0.2866
@<TRIPOS>BOND
     1    33    32    2
     2    32    31    1
     3    31    34    1
     4    31    30    1
     5    34    35    1
     6   128   127   ar
     7   127   129   ar
     8   127   126    1
     9    14    13    2
    10    30    25   am
    11    11    12    1
    12    35    37   ar
    13    35    36   ar
    14   124   123    2
    15   126   125    1
    16    26    25    2
    17    40    37   ar
    18    40    42   ar
    19    13    12    1
    20    25    24    1
    21     4     3    2
    22   123   122    1
    23    37    39   ar
    24    36    38   ar
    25    12    15    1
    26    42    43   ar
    27   125   122    1
    28    15    16    1
    29   133   132    2
    30     3     2    1
    31    23    24    1
    32    23    29    1
    33   122   121    1
    34    24    27    1
    35    39    38   ar
    36    39    41   ar
    37    43    41   ar
    38    18    16   ar
    39    18    20   ar
    40    16    17   ar
    41   132   131    1
    42   130   131    1
    43     2     1    1
    44     2     5    1
    45   121   117   am
    46     8    10   ar
    47     8     6   ar
    48   134   131    1
    49   134   135    1
    50    29    28    1
    51    27    28    1
    52    20    21   ar
    53   118   117    2
    54    10     9   ar
    55   117   116    1
    56    17    19   ar
    57     6     5    1
    58     6     7   ar
    59   120   119    1
    60   120   185    1
    61   119   116    1
    62    55    57   ar
    63    55    53   ar
    64    57    56   ar
    65     9     7   ar
    66    53    52   ar
    67    53    51   ar
    68    52    50   ar
    69    21    19   ar
    70    21    22    1
    71    56    54   ar
    72   116   115    1
    73    51    54   ar
    74    51    49   ar
    75    50    49   ar
    76    49    48    1
    77   115   112   am
    78    48    45    1
    79   185   184    1
    80   139   138    2
    81   140   142    1
    82   140   141    1
    83   140   137    1
    84    68    66    1
    85   112   111    1
    86   112   113    2
    87   111   114    1
    88   111   110    1
    89   184   181    1
    90    45    46    1
    91    45    44    1
    92   146   145    2
    93   138   137    1
    94   138   143   am
    95    47    46    2
    96   136   137    1
    97   105   104    2
    98    46    58   am
    99    66    65    2
   100    66    67    1
   101    92    91    1
   102    93    91    1
   103    91    90    1
   104    65    64    1
   105   145   144    1
   106   145   149   am
   107    58    59    1
   108   144   143    1
   109   144   147    1
   110   110   104   am
   111   104   103    1
   112   181   180    1
   113   181   182    1
   114    59    62    1
   115    59    60    1
   116   180   178   am
   117    62    63    1
   118   179   178    2
   119   178   177    1
   120   177   176    1
   121   183   182    2
   122   149   150    1
   123   150   153    1
   124   150   151    1
   125    63    64    1
   126   148   147    1
   127   166   165    2
   128    90    87    1
   129   176   169   am
   130   153   154    1
   131   103   102    1
   132   103   106    1
   133    60    61    2
   134    60    69   am
   135   163   151   am
   136   163   164    1
   137    87    86    1
   138    87    88    1
   139   151   152    2
   140   106   107    1
   141   210   208   ar
   142   210   211   ar
   143   107   108   ar
   144   107   109   ar
   145   165   164    1
   146   165   167   am
   147    89    88    2
   148   208   206   ar
   149    69    70    1
   150    86    80   am
   151   212   211    1
   152   169   168    1
   153   169   170    2
   154   154   155   ar
   155   154   156   ar
   156   211   209   ar
   157   193   192    2
   158   168   167    1
   159   168   171    1
   160   155   157   ar
   161   206   205    1
   162   206   207   ar
   163    70    71    1
   164    70    73    1
   165    80    81    2
   166    80    79    1
   167   202   205    1
   168   202   203    1
   169   202   201    1
   170    72    71    2
   171    71    78   am
   172   156   159   ar
   173   156   158   ar
   174    78    79    1
   175   192   201   am
   176   192   191    1
   177   209   207   ar
   178   203   204    2
   179   159   161   ar
   180    79    82    1
   181   171   172    1
   182   157   158   ar
   183   187   188    1
   184   187   186    1
   185   190   191    1
   186   190   188   am
   187   172   173    1
   188    73    74    1
   189   158   160   ar
   190   191   194    1
   191   188   189    2
   192   194   195    1
   193    84    83    2
   194   161   162   ar
   195    82    83    1
   196   173   175   ar
   197   173   174   ar
   198    74    75    1
   199   101    99    1
   200   160   162   ar
   201    83    85   am
   202    99    98    1
   203   195   196   ar
   204   195   197   ar
   205   196   198   ar
   206   100    98    1
   207    75    76   ar
   208    75    77   ar
   209    98    95    1
   210   197   199   ar
   211   198   200   ar
   212    95    94    1
   213    95    96    1
   214   199   200   ar
   215    96    97    2
