@<TRIPOS>MOLECULE
tmp/1zrhA00.pdb
 197 187 0 0 0
SMALL
GASTEIGER

@<TRIPOS>ATOM
      1  N         11.8100   26.2600    6.8960 N.3    20  LYS20      -0.1231
      2  CA        11.2440   26.6640    8.1780 C.3    20  LYS20       0.1693
      3  C          9.7160   26.5940    8.2880 C.2    20  LYS20       0.2593
      4  O          9.1520   27.0990    9.2660 O.2    20  LYS20      -0.2718
      5  CB        11.7390   28.0440    8.6540 C.3    20  LYS20       0.0285
      6  CG        13.2800   28.1560    8.6550 C.3    20  LYS20       0.0035
      7  CD        14.0010   26.9220    9.2380 C.3    20  LYS20       0.0206
      8  CE        13.8620   26.9200   10.7470 C.3    20  LYS20       0.1093
      9  NZ        14.3150   25.6590   11.3400 N.3    20  LYS20      -0.1314
     10  N          9.0680   25.9970    7.2940 N.am   21  GLY21      -0.1942
     11  CA         7.6030   25.8130    7.3180 C.3    21  GLY21       0.2014
     12  C          7.1120   24.8060    8.3190 C.2    21  GLY21       0.2639
     13  O          5.9390   24.8510    8.7130 O.2    21  GLY21      -0.2714
     14  N          7.9800   23.8810    8.7070 N.am   22  GLY22      -0.1939
     15  CA         7.6480   22.7090    9.5750 C.3    22  GLY22       0.2014
     16  C          7.8550   21.3810    8.8330 C.2    22  GLY22       0.2640
     17  O          7.0910   20.4310    9.0050 O.2    22  GLY22      -0.2714
     18  N          8.8820   21.3270    7.9960 N.am   23  THR23      -0.1936
     19  CA         9.1230   20.2050    7.0650 C.3    23  THR23       0.2028
     20  C          9.5240   18.9080    7.7790 C.2    23  THR23       0.2642
     21  O          9.1500   17.8130    7.3790 O.2    23  THR23      -0.2714
     22  CB        10.1940   20.5460    5.9790 C.3    23  THR23       0.1808
     23  OG1       11.4630   20.9350    6.5820 O.3    23  THR23      -0.2208
     24  CG2        9.6770   21.6610    5.0260 C.3    23  THR23       0.0379
     25  N         10.3370   19.0480    8.8080 N.am   24  ARG24      -0.1963
     26  CA        10.7560   17.9030    9.5970 C.3    24  ARG24       0.1729
     27  C          9.5810   17.3590   10.4480 C.2    24  ARG24       0.2616
     28  O          9.3590   16.1590   10.4600 O.2    24  ARG24      -0.2715
     29  CB        11.9560   18.2790   10.4790 C.3    24  ARG24       0.0348
     30  CG        12.3540   17.2010   11.5390 C.3    24  ARG24       0.0492
     31  CD        12.7660   15.8880   10.8840 C.3    24  ARG24       0.2205
     32  NE        13.9930   16.0180   10.1030 N.pl3  24  ARG24      -0.0865
     33  CZ        14.6060   15.0140    9.4750 C.cat  24  ARG24       0.5346
     34  NH1       14.1100   13.7700    9.5030 N.pl3  24  ARG24       0.1354
     35  NH2       15.7200   15.2550    8.8110 N.pl3  24  ARG24       0.1354
     36  N          8.8470   18.2430   11.1300 N.am   25  ALA25      -0.1977
     37  CA         7.5730   17.8160   11.7500 C.3    25  ALA25       0.1597
     38  C          6.6720   17.0430   10.7590 C.2    25  ALA25       0.2287
     39  O          6.2130   15.9680   11.0670 O.2    25  ALA25      -0.2864
     40  CB         6.8140   19.0060   12.3920 C.3    25  ALA25       0.0319
     41  N          5.8420   13.0520   11.1380 N.3    29  MET29      -0.1245
     42  CA         4.4290   12.6920   11.3730 C.3    29  MET29       0.1570
     43  C          3.8300   11.8270   10.2710 C.2    29  MET29       0.2261
     44  O          3.1370   10.8630   10.5330 O.2    29  MET29      -0.2867
     45  CB         3.5580   13.9520   11.5370 C.3    29  MET29       0.0387
     46  CG         3.9060   14.7130   12.7820 C.3    29  MET29       0.0595
     47  SD         3.1980   16.3550   12.8350 S.3    29  MET29      -0.1393
     48  CE         3.6620   16.7720   14.5650 C.3    29  MET29       0.0692
     49  N         12.0730   14.8700    2.1100 N.3    75  LYS75      -0.1245
     50  CA        11.9510   16.3110    2.2940 C.3    75  LYS75       0.1561
     51  C         13.2940   16.9990    2.0220 C.2    75  LYS75       0.2260
     52  O         14.3210   16.5980    2.5600 O.2    75  LYS75      -0.2867
     53  CB        11.3510   16.7010    3.6790 C.3    75  LYS75       0.0271
     54  CG        12.2550   16.5940    4.9640 C.3    75  LYS75       0.0035
     55  CD        12.8070   17.9170    5.3630 C.3    75  LYS75       0.0206
     56  CE        13.4930   17.8620    6.7060 C.3    75  LYS75       0.1093
     57  NZ        13.8640   19.2360    7.1800 N.3    75  LYS75      -0.1314
     58  N         13.8360   21.1340    1.9530 N.3    77  PRO77      -0.2116
     59  CA        13.1090   22.4230    1.9140 C.3    77  PRO77       0.1372
     60  C         13.5930   23.4260    0.8680 C.2    77  PRO77       0.2244
     61  O         12.7720   24.2410    0.4230 O.2    77  PRO77      -0.2868
     62  CB        13.1810   22.9610    3.3650 C.3    77  PRO77       0.0268
     63  CG        13.7350   21.7990    4.2160 C.3    77  PRO77       0.0207
     64  CD        14.4400   20.8360    3.2650 C.3    77  PRO77       0.0892
     65  N          4.1370   28.4930    6.8630 N.3   103  ARG103     -0.1245
     66  CA         3.7950   29.1920    8.0980 C.3   103  ARG103      0.1563
     67  C          3.4670   30.6250    7.7520 C.2   103  ARG103      0.2260
     68  O          3.7610   31.0880    6.6320 O.2   103  ARG103     -0.2867
     69  CB         4.9600   29.1480    9.0930 C.3   103  ARG103      0.0307
     70  CG         4.9680   27.7990    9.8430 C.3   103  ARG103      0.0489
     71  CD         6.2640   27.5670   10.5490 C.3   103  ARG103      0.2205
     72  NE         6.3860   28.4290   11.7390 N.pl3 103  ARG103     -0.0865
     73  CZ         7.5510   28.7080   12.3120 C.cat 103  ARG103      0.5346
     74  NH1        8.6710   28.2120   11.7920 N.pl3 103  ARG103      0.1354
     75  NH2        7.6010   29.4760   13.4000 N.pl3 103  ARG103      0.1354
     76  N         11.9240   32.6270   12.1920 N.3   111  SER111     -0.1217
     77  CA        12.4360   31.2450   12.3100 C.3   111  SER111      0.1889
     78  C         13.7410   30.9770   11.5490 C.2   111  SER111      0.2288
     79  O         14.6300   30.2900   12.0330 O.2   111  SER111     -0.2866
     80  CB        11.3650   30.2790   11.8210 C.3   111  SER111      0.2089
     81  OG        11.8260   28.9540   11.9510 O.3   111  SER111     -0.2183
     82  N         16.5700   32.8620   13.2710 N.3   114  THR114     -0.1203
     83  CA        16.8670   32.1390   14.5200 C.3   114  THR114      0.1994
     84  C         17.7230   30.9050   14.2940 C.2   114  THR114      0.2617
     85  O         18.7100   30.7010   14.9930 O.2   114  THR114     -0.2717
     86  CB        15.5700   31.7540   15.2560 C.3   114  THR114      0.1784
     87  OG1       14.8520   32.9580   15.5900 O.3   114  THR114     -0.2211
     88  CG2       15.8660   30.9350   16.5230 C.3   114  THR114      0.0376
     89  N         17.3740   30.1130   13.2900 N.am  115  GLN115     -0.1979
     90  CA        18.1470   28.9430   13.0010 C.3   115  GLN115      0.1601
     91  C         19.6090   29.2620   12.6350 C.2   115  GLN115      0.2287
     92  O         20.5210   28.5960   13.1580 O.2   115  GLN115     -0.2864
     93  CB        17.5360   28.1280   11.8910 C.3   115  GLN115      0.0394
     94  CG        18.4400   26.9730   11.5460 C.3   115  GLN115      0.0908
     95  CD        17.6670   25.8360   11.0100 C.2   115  GLN115      0.2608
     96  OE1       17.3360   25.8050    9.8230 O.2   115  GLN115     -0.2717
     97  NE2       17.3270   24.8890   11.8810 N.am  115  GLN115     -0.0878
     98  N          1.0390   25.2520    8.1880 N.3   173  GLY173     -0.1225
     99  CA         2.0930   25.0480    9.1830 C.3   173  GLY173      0.1811
    100  C          1.7520   25.6520   10.5280 C.2   173  GLY173      0.2280
    101  O          2.1310   25.0980   11.5420 O.2   173  GLY173     -0.2866
    102  N         -0.5590   23.1380   12.0510 N.3   176  LEU176     -0.1231
    103  CA         0.2050   21.9450   12.4440 C.3   176  LEU176      0.1693
    104  C          0.8380   22.1750   13.8230 C.2   176  LEU176      0.2591
    105  O          0.9370   21.2250   14.6310 O.2   176  LEU176     -0.2718
    106  CB         1.3020   21.5990   11.4060 C.3   176  LEU176      0.0284
    107  CG         2.0760   20.2950   11.6430 C.3   176  LEU176      0.0019
    108  CD1        1.2160   19.1760   11.0440 C.3   176  LEU176      0.0001
    109  CD2        3.5420   20.2520   11.0880 C.3   176  LEU176      0.0001
    110  N          1.3510   23.4030   14.0620 N.am  177  ILE177     -0.1980
    111  CA         1.9370   23.7290   15.3560 C.3   177  ILE177      0.1595
    112  C          0.8870   23.6200   16.4740 C.2   177  ILE177      0.2287
    113  O          1.1620   22.9740   17.4730 O.2   177  ILE177     -0.2864
    114  CB         2.6310   25.1150   15.3980 C.3   177  ILE177      0.0276
    115  CG1        3.9120   25.1010   14.5710 C.3   177  ILE177      0.0022
    116  CG2        2.9360   25.5360   16.8960 C.3   177  ILE177      0.0022
    117  CD1        4.3510   26.4870   14.0500 C.3   177  ILE177      0.0001
    118  N          9.0840   21.0130   25.8260 N.3   208  LYS208     -0.1245
    119  CA         9.4090   21.2870   24.4310 C.3   208  LYS208      0.1561
    120  C          8.6460   22.5230   23.9740 C.2   208  LYS208      0.2260
    121  O          9.1790   23.3620   23.2330 O.2   208  LYS208     -0.2867
    122  CB         9.1000   20.0360   23.5660 C.3   208  LYS208      0.0271
    123  CG         9.4100   20.1830   22.0700 C.3   208  LYS208      0.0035
    124  CD        10.9080   20.1210   21.7850 C.3   208  LYS208      0.0206
    125  CE        11.1990   20.4390   20.3270 C.3   208  LYS208      0.1093
    126  NZ        12.6800   20.4060   20.0760 N.3   208  LYS208     -0.1314
    127  N          5.9020   22.0840   22.2500 N.3   210  PHE210     -0.1227
    128  CA         5.3890   21.5880   20.9580 C.3   210  PHE210      0.1736
    129  C          4.8730   20.1780   21.1780 C.2   210  PHE210      0.2595
    130  O          5.2750   19.5250   22.1330 O.2   210  PHE210     -0.2718
    131  CB         6.5160   21.5380   19.8920 C.3   210  PHE210      0.0547
    132  CG         6.8870   22.8960   19.3420 C.ar  210  PHE210     -0.0202
    133  CD1        6.1920   23.4370   18.2750 C.ar  210  PHE210     -0.0042
    134  CD2        7.9180   23.6460   19.9270 C.ar  210  PHE210     -0.0042
    135  CE1        6.5240   24.6750   17.7810 C.ar  210  PHE210     -0.0003
    136  CE2        8.2600   24.9310   19.4420 C.ar  210  PHE210     -0.0003
    137  CZ         7.5520   25.4440   18.3730 C.ar  210  PHE210     -0.0000
    138  N          4.0120   19.7150   20.2800 N.am  211  TYR211     -0.1976
    139  CA         3.6590   18.2870   20.2200 C.3   211  TYR211      0.1639
    140  C          4.8400   17.3950   19.9090 C.2   211  TYR211      0.2290
    141  O          5.7600   17.7530   19.1650 O.2   211  TYR211     -0.2864
    142  CB         2.4950   18.0130   19.2430 C.3   211  TYR211      0.0560
    143  CG         1.1320   18.4510   19.7890 C.ar  211  TYR211     -0.0198
    144  CD1        0.3140   17.5610   20.5260 C.ar  211  TYR211     -0.0009
    145  CD2        0.6630   19.7480   19.5610 C.ar  211  TYR211     -0.0009
    146  CE1       -0.9160   17.9790   21.0250 C.ar  211  TYR211      0.0417
    147  CE2       -0.5870   20.1790   20.0720 C.ar  211  TYR211      0.0417
    148  CZ        -1.3430   19.2990   20.8140 C.ar  211  TYR211      0.1957
    149  OH        -2.5650   19.7510   21.2640 O.3   211  TYR211     -0.2866
    150  N         10.9150   16.3240   18.4290 N.3   222  LEU222     -0.1245
    151  CA        11.8450   16.7690   17.4340 C.3   222  LEU222      0.1561
    152  C         13.0720   17.2940   18.1680 C.2   222  LEU222      0.2260
    153  O         13.0070   17.5990   19.3810 O.2   222  LEU222     -0.2867
    154  CB        11.2000   17.8170   16.5240 C.3   222  LEU222      0.0270
    155  CG        10.5800   17.2370   15.2270 C.3   222  LEU222      0.0019
    156  CD1        9.9930   15.7960   15.2220 C.3   222  LEU222      0.0001
    157  CD2        9.6040   18.2530   14.6320 C.3   222  LEU222      0.0001
    158  N         17.2620   21.7440   17.4670 N.3   225  SER225     -0.1202
    159  CA        17.1380   22.7960   16.4450 C.3   225  SER225      0.2020
    160  C         15.6800   23.1820   16.0930 C.2   225  SER225      0.2619
    161  O         15.4550   24.2360   15.5050 O.2   225  SER225     -0.2717
    162  CB        17.9040   22.4100   15.1700 C.3   225  SER225      0.2103
    163  OG        17.1470   21.5250   14.3570 O.3   225  SER225     -0.2182
    164  N         14.7100   22.3320   16.4600 N.am  226  LYS226     -0.1965
    165  CA        13.2830   22.5130   16.1050 C.3   226  LYS226      0.1728
    166  C         12.4290   23.0690   17.2720 C.2   226  LYS226      0.2617
    167  O         12.2580   22.4350   18.3280 O.2   226  LYS226     -0.2715
    168  CB        12.6820   21.1820   15.6350 C.3   226  LYS226      0.0311
    169  CG        13.5180   20.4480   14.6050 C.3   226  LYS226      0.0038
    170  CD        13.4610   21.1710   13.2390 C.3   226  LYS226      0.0206
    171  CE        14.3270   20.4260   12.2120 C.3   226  LYS226      0.1093
    172  NZ        14.4390   21.1170   10.8870 N.3   226  LYS226     -0.1314
    173  N         11.8780   24.2500   17.0490 N.am  227  GLY227     -0.1940
    174  CA        11.0440   24.9180   18.0170 C.3   227  GLY227      0.2014
    175  C         11.8900   25.8400   18.8790 C.2   227  GLY227      0.2638
    176  O         11.8520   25.7270   20.1020 O.2   227  GLY227     -0.2714
    177  N         12.6550   26.7330   18.2380 N.am  228  ARG228     -0.1977
    178  CA        13.5680   27.6580   18.9390 C.3   228  ARG228      0.1597
    179  C         12.9680   29.0600   19.0780 C.2   228  ARG228      0.2287
    180  O         12.3490   29.5880   18.1470 O.2   228  ARG228     -0.2864
    181  CB        14.9280   27.7520   18.2330 C.3   228  ARG228      0.0334
    182  CG        15.7600   26.5050   18.3220 C.3   228  ARG228      0.0492
    183  CD        17.2550   26.8050   18.5030 C.3   228  ARG228      0.2205
    184  NE        17.7840   25.8290   19.4590 N.pl3 228  ARG228     -0.0865
    185  CZ        17.9830   26.0520   20.7590 C.cat 228  ARG228      0.5346
    186  NH1       17.7670   27.2550   21.2980 N.pl3 228  ARG228      0.1354
    187  NH2       18.4280   25.0710   21.5200 N.pl3 228  ARG228      0.1354
    188  N         12.2970   32.7990   18.9790 N.3   230  HIS230     -0.1241
    189  CA        12.6400   33.8610   18.0360 C.3   230  HIS230      0.1621
    190  C         13.1320   35.0910   18.8000 C.2   230  HIS230      0.2264
    191  O         12.8140   35.2230   19.9920 O.2   230  HIS230     -0.2867
    192  CB        11.4300   34.2190   17.1820 C.3   230  HIS230      0.0745
    193  CG        10.9170   33.0790   16.3560 C.ar  230  HIS230      0.0817
    194  ND1        9.7280   33.1430   15.6550 N.ar  230  HIS230     -0.2268
    195  CD2       11.4210   31.8420   16.1320 C.ar  230  HIS230      0.1154
    196  CE1        9.5310   31.9980   15.0300 C.ar  230  HIS230      0.1986
    197  NE2       10.5420   31.1910   15.3060 N.ar  230  HIS230     -0.2212
@<TRIPOS>BOND
     1    61    60    2
     2    60    59    1
     3    59    58    1
     4    59    62    1
     5    58    64    1
     6    51    50    1
     7    51    52    2
     8    49    50    1
     9    50    53    1
    10    64    63    1
    11    62    63    1
    12    53    54    1
    13    54    55    1
    14    24    22    1
    15    55    56    1
    16    22    23    1
    17    22    19    1
    18    68    67    2
    19    56    57    1
    20    65    66    1
    21     1     2    1
    22    19    20    1
    23    19    18    1
    24    10    11    1
    25    10     3   am
    26    11    12    1
    27    21    20    2
    28    67    66    1
    29    20    25   am
    30    18    16   am
    31    66    69    1
    32     2     3    1
    33     2     5    1
    34    98    99    1
    35     3     4    2
    36    12    14   am
    37    12    13    2
    38     5     6    1
    39     6     7    1
    40    14    15    1
    41    25    26    1
    42    35    33    1
    43    16    17    2
    44    16    15    1
    45    69    70    1
    46    99   100    1
    47     7     8    1
    48    33    34    1
    49    33    32    2
    50    26    27    1
    51    26    29    1
    52    96    95    2
    53    70    71    1
    54    32    31    1
    55    43    44    2
    56    43    42    1
    57    27    28    2
    58    27    36   am
    59    29    30    1
    60   100   101    2
    61    71    72    1
    62     8     9    1
    63    38    39    2
    64    38    37    1
    65    31    30    1
    66   172   171    1
    67    95    94    1
    68    95    97   am
    69   108   107    1
    70   109   107    1
    71    36    37    1
    72    41    42    1
    73    42    45    1
    74   106   107    1
    75   106   103    1
    76    45    46    1
    77    94    93    1
    78    78    79    2
    79    78    77    1
    80    72    73    2
    81    37    40    1
    82    74    73    1
    83    80    81    1
    84    80    77    1
    85    93    90    1
    86   102   103    1
    87    76    77    1
    88   171   170    1
    89    73    75    1
    90   103   104    1
    91    91    90    1
    92    91    92    2
    93    46    47    1
    94    47    48    1
    95    90    89    1
    96   170   169    1
    97    82    83    1
    98    89    84   am
    99   104   110   am
   100   104   105    2
   101   117   115    1
   102   110   111    1
   103    84    83    1
   104    84    85    2
   105   163   162    1
   106    83    86    1
   107   115   114    1
   108   169   168    1
   109   157   155    1
   110   196   197   ar
   111   196   194   ar
   112   162   159    1
   113   156   155    1
   114   155   154    1
   115    86    87    1
   116    86    88    1
   117   197   195   ar
   118   111   114    1
   119   111   112    1
   120   114   116    1
   121   161   160    2
   122   168   165    1
   123   194   193   ar
   124   160   159    1
   125   160   164   am
   126   165   164    1
   127   165   166    1
   128   195   193   ar
   129   193   192    1
   130   159   158    1
   131   112   113    2
   132   154   151    1
   133   173   166   am
   134   173   174    1
   135   192   189    1
   136   166   167    2
   137   151   152    1
   138   151   150    1
   139   135   133   ar
   140   135   137   ar
   141   174   175    1
   142   189   190    1
   143   189   188    1
   144   180   179    2
   145   152   153    2
   146   181   182    1
   147   181   178    1
   148   177   175   am
   149   177   178    1
   150   133   132   ar
   151   182   183    1
   152   137   136   ar
   153   183   184    1
   154   190   191    2
   155   175   176    2
   156   178   179    1
   157   141   140    2
   158   142   143    1
   159   142   139    1
   160   132   131    1
   161   132   134   ar
   162   136   134   ar
   163   184   185    2
   164   145   143   ar
   165   145   147   ar
   166   143   144   ar
   167   131   128    1
   168   140   139    1
   169   147   148   ar
   170   126   125    1
   171   139   138    1
   172   138   129   am
   173   125   124    1
   174   144   146   ar
   175   185   186    1
   176   185   187    1
   177   148   146   ar
   178   148   149    1
   179   128   129    1
   180   128   127    1
   181   129   130    2
   182   124   123    1
   183   123   122    1
   184   121   120    2
   185   122   119    1
   186   120   119    1
   187   119   118    1
