@<TRIPOS>MOLECULE
tmp/1zrkA00.pdb
 148 146 0 0 0
SMALL
GASTEIGER

@<TRIPOS>ATOM
      1  N        102.4850   30.4510   50.0250 N.3    44  HIS44      -0.1241
      2  CA       102.6980   29.9660   51.3810 C.3    44  HIS44       0.1621
      3  C        103.9630   30.5330   52.0230 C.2    44  HIS44       0.2264
      4  O        104.1270   30.4610   53.2380 O.2    44  HIS44      -0.2867
      5  CB       102.7020   28.4260   51.4380 C.3    44  HIS44       0.0745
      6  CG       104.0030   27.7920   51.0530 C.ar   44  HIS44       0.0817
      7  ND1      104.2590   27.3230   49.7810 N.ar   44  HIS44      -0.2268
      8  CD2      105.1160   27.5300   51.7780 C.ar   44  HIS44       0.1154
      9  CE1      105.4700   26.8000   49.7410 C.ar   44  HIS44       0.1986
     10  NE2      106.0130   26.9130   50.9390 N.ar   44  HIS44      -0.2212
     11  N        117.0300   22.7810   52.0430 N.3   134  TYR134     -0.1241
     12  CA       117.5270   21.5760   52.7050 C.3   134  TYR134      0.1605
     13  C        117.9970   20.4860   51.7340 C.2   134  TYR134      0.2264
     14  O        117.4130   20.2860   50.6680 O.2   134  TYR134     -0.2867
     15  CB       116.4260   20.9770   53.5890 C.3   134  TYR134      0.0534
     16  CG       116.0800   21.7690   54.8310 C.ar  134  TYR134     -0.0201
     17  CD1      116.4920   23.0900   54.9850 C.ar  134  TYR134     -0.0009
     18  CD2      115.3280   21.1980   55.8460 C.ar  134  TYR134     -0.0009
     19  CE1      116.1650   23.8150   56.1140 C.ar  134  TYR134      0.0417
     20  CE2      114.9960   21.9150   56.9770 C.ar  134  TYR134      0.0417
     21  CZ       115.4200   23.2200   57.1040 C.ar  134  TYR134      0.1957
     22  OH       115.1030   23.9200   58.2430 O.3   134  TYR134     -0.2866
     23  N        115.9920   16.0370   55.1910 N.3   137  LEU137     -0.1245
     24  CA       114.7290   16.3920   55.8400 C.3   137  LEU137      0.1561
     25  C        114.9190   17.3140   57.0590 C.2   137  LEU137      0.2260
     26  O        114.1660   18.2770   57.2500 O.2   137  LEU137     -0.2867
     27  CB       114.0080   15.1050   56.2500 C.3   137  LEU137      0.0270
     28  CG       112.6330   15.1980   56.8960 C.3   137  LEU137      0.0019
     29  CD1      111.7120   16.0290   56.0290 C.3   137  LEU137      0.0001
     30  CD2      112.0630   13.8010   57.0360 C.3   137  LEU137      0.0001
     31  N        115.1700   15.9720   44.5440 N.3   182  ASP182     -0.1225
     32  CA       113.9160   16.6790   44.7670 C.3   182  ASP182      0.1805
     33  C        114.1920   18.0250   45.4300 C.2   182  ASP182      0.2598
     34  O        115.3140   18.2890   45.8620 O.2   182  ASP182     -0.2718
     35  CB       113.0490   15.7910   45.6770 C.3   182  ASP182      0.1424
     36  CG       111.6540   16.3330   45.9180 C.2   182  ASP182      0.3668
     37  OD1      111.1900   17.2240   45.1720 O.co2 182  ASP182     -0.2456
     38  OD2      111.0090   15.8290   46.8640 O.co2 182  ASP182     -0.2456
     39  N        113.1780   18.8830   45.4820 N.am  183  ALA183     -0.1966
     40  CA       113.3080   20.1650   46.1550 C.3   183  ALA183      0.1728
     41  C        112.9840   19.8390   47.6120 C.2   183  ALA183      0.2616
     42  O        112.5900   18.7130   47.9190 O.2   183  ALA183     -0.2715
     43  CB       112.3080   21.1660   45.5980 C.3   183  ALA183      0.0334
     44  N        113.1420   20.8030   48.5100 N.am  184  CYS184     -0.1954
     45  CA       112.8650   20.5630   49.9250 C.3   184  CYS184      0.1843
     46  C        112.6020   21.8950   50.6240 C.2   184  CYS184      0.2625
     47  O        112.5910   22.9380   49.9760 O.2   184  CYS184     -0.2714
     48  CB       114.0600   19.8440   50.5730 C.3   184  CYS184      0.0997
     49  SG       113.6880   18.9430   52.1190 S.3   184  CYS184     -0.0797
     50  N        112.3810   21.8560   51.9360 N.am  185  LYS185     -0.1977
     51  CA       112.1260   23.0760   52.6920 C.3   185  LYS185      0.1596
     52  C        113.2210   24.0890   52.3820 C.2   185  LYS185      0.2287
     53  O        114.3930   23.7320   52.3140 O.2   185  LYS185     -0.2864
     54  CB       112.0860   22.7810   54.1910 C.3   185  LYS185      0.0298
     55  CG       111.7750   24.0040   55.0310 C.3   185  LYS185      0.0038
     56  CD       111.3650   23.6480   56.4600 C.3   185  LYS185      0.0206
     57  CE       111.0770   24.9150   57.2830 C.3   185  LYS185      0.1093
     58  NZ       110.5530   24.6210   58.6670 N.3   185  LYS185     -0.1314
     59  N        111.1660   26.3790   48.4770 N.3   188  SER188     -0.1217
     60  CA       109.8260   26.8710   48.1340 C.3   188  SER188      0.1889
     61  C        109.8340   28.2470   47.4680 C.2   188  SER188      0.2288
     62  O        110.5830   29.1290   47.8650 O.2   188  SER188     -0.2866
     63  CB       108.9540   26.9240   49.3870 C.3   188  SER188      0.2089
     64  OG       108.8290   25.6390   49.9580 O.3   188  SER188     -0.2183
     65  N        108.2980   25.6880   43.0240 N.3   206  THR206     -0.1203
     66  CA       108.4210   24.7510   44.1260 C.3   206  THR206      0.1994
     67  C        107.3510   25.0560   45.1700 C.2   206  THR206      0.2619
     68  O        107.2930   26.1620   45.7150 O.2   206  THR206     -0.2717
     69  CB       109.8180   24.8380   44.7540 C.3   206  THR206      0.1784
     70  OG1      110.8050   24.5740   43.7470 O.3   206  THR206     -0.2211
     71  CG2      109.9560   23.8260   45.8870 C.3   206  THR206      0.0376
     72  N        106.4990   24.0710   45.4420 N.am  207  SER207     -0.1937
     73  CA       105.4070   24.2560   46.3810 C.3   207  SER207      0.2055
     74  C        105.3790   23.2870   47.5710 C.2   207  SER207      0.2643
     75  O        105.4550   23.7220   48.7160 O.2   207  SER207     -0.2714
     76  CB       104.0800   24.1870   45.6110 C.3   207  SER207      0.2130
     77  OG       102.9570   24.3270   46.4590 O.3   207  SER207     -0.2179
     78  N        105.2630   21.9860   47.3090 N.am  208  TRP208     -0.1959
     79  CA       105.2090   21.0100   48.4030 C.3   208  TRP208      0.1771
     80  C        105.5060   19.5660   48.0070 C.2   208  TRP208      0.2620
     81  O        105.7820   19.2630   46.8460 O.2   208  TRP208     -0.2715
     82  CB       103.8320   21.0420   49.0820 C.3   208  TRP208      0.0590
     83  CG       102.6860   20.5820   48.1890 C.ar  208  TRP208      0.0006
     84  CD1      102.0260   21.3300   47.2560 C.ar  208  TRP208      0.0946
     85  CD2      102.0750   19.2740   48.1560 C.ar  208  TRP208      0.0152
     86  NE1      101.0450   20.5770   46.6500 N.ar  208  TRP208     -0.2442
     87  CE2      101.0550   19.3160   47.1810 C.ar  208  TRP208      0.0810
     88  CE3      102.2940   18.0810   48.8530 C.ar  208  TRP208      0.0012
     89  CZ2      100.2530   18.2100   46.8890 C.ar  208  TRP208      0.0191
     90  CZ3      101.4940   16.9820   48.5610 C.ar  208  TRP208      0.0001
     91  CH2      100.4880   17.0560   47.5870 C.ar  208  TRP208      0.0015
     92  N        105.4290   18.6810   48.9950 N.am  209  GLY209     -0.1940
     93  CA       105.6740   17.2670   48.7710 C.3   209  GLY209      0.2014
     94  C        105.7680   16.5340   50.0970 C.2   209  GLY209      0.2639
     95  O        106.0390   17.1610   51.1230 O.2   209  GLY209     -0.2714
     96  N        105.5340   15.2250   50.0980 N.am  210  GLU210     -0.1963
     97  CA       105.6260   14.4520   51.3360 C.3   210  GLU210      0.1733
     98  C        107.0920   14.1780   51.6010 C.2   210  GLU210      0.2617
     99  O        107.7030   13.3370   50.9460 O.2   210  GLU210     -0.2715
    100  CB       104.8680   13.1210   51.2220 C.3   210  GLU210      0.0429
    101  CG       104.8790   12.3220   52.5170 C.3   210  GLU210      0.1163
    102  CD       104.2680   13.0940   53.6870 C.2   210  GLU210      0.3649
    103  OE1      103.0330   13.2470   53.7060 O.co2 210  GLU210     -0.2457
    104  OE2      105.0150   13.5560   54.5880 O.co2 210  GLU210     -0.2457
    105  N        107.6600   14.8850   52.5660 N.am  211  GLY211     -0.1940
    106  CA       109.0730   14.7080   52.8430 C.3   211  GLY211      0.2014
    107  C        109.8790   15.2920   51.6870 C.2   211  GLY211      0.2639
    108  O        109.4210   16.2130   51.0020 O.2   211  GLY211     -0.2714
    109  N        111.0720   14.7550   51.4580 N.am  212  CYS212     -0.1967
    110  CA       111.9220   15.2400   50.3780 C.3   212  CYS212      0.1712
    111  C        112.6980   14.1180   49.7220 C.2   212  CYS212      0.2296
    112  O        113.4200   13.3820   50.3900 O.2   212  CYS212     -0.2864
    113  CB       112.9130   16.2770   50.9040 C.3   212  CYS212      0.0983
    114  SG       112.1260   17.7750   51.5680 S.3   212  CYS212     -0.0798
    115  N        107.3870    9.6370   45.6570 N.3   217  ARG217     -0.1245
    116  CA       106.7950   10.8460   46.2150 C.3   217  ARG217      0.1563
    117  C        107.3130   12.0510   45.4230 C.2   217  ARG217      0.2260
    118  O        108.2130   12.7740   45.8480 O.2   217  ARG217     -0.2867
    119  CB       107.1470   10.9910   47.6980 C.3   217  ARG217      0.0307
    120  CG       106.4340   10.0110   48.6250 C.3   217  ARG217      0.0489
    121  CD       104.9240   10.1540   48.5680 C.3   217  ARG217      0.2205
    122  NE       104.2950    9.5640   49.7450 N.pl3 217  ARG217     -0.0865
    123  CZ       103.0260    9.7540   50.0910 C.cat 217  ARG217      0.5346
    124  NH1      102.2330   10.5190   49.3490 N.pl3 217  ARG217      0.1354
    125  NH2      102.5480    9.1990   51.1950 N.pl3 217  ARG217      0.1354
    126  N        107.8330   15.6590   43.6330 N.3   219  GLY219     -0.1210
    127  CA       107.7030   17.0030   44.1530 C.3   219  GLY219      0.1956
    128  C        106.4870   17.6140   43.4750 C.2   219  GLY219      0.2612
    129  O        106.1840   17.2790   42.3290 O.2   219  GLY219     -0.2717
    130  N        105.7750   18.4940   44.1720 N.am  220  VAL220     -0.1965
    131  CA       104.5920   19.1180   43.6030 C.3   220  VAL220      0.1727
    132  C        104.8490   20.5990   43.4030 C.2   220  VAL220      0.2616
    133  O        105.2590   21.3010   44.3250 O.2   220  VAL220     -0.2715
    134  CB       103.3520   18.9070   44.5090 C.3   220  VAL220      0.0290
    135  CG1      102.1190   19.4520   43.8330 C.3   220  VAL220      0.0023
    136  CG2      103.1650   17.4240   44.7970 C.3   220  VAL220      0.0023
    137  N        104.6020   21.0670   42.1840 N.am  221  TYR221     -0.1974
    138  CA       104.8450   22.4550   41.8340 C.3   221  TYR221      0.1639
    139  C        103.6130   23.1280   41.2540 C.2   221  TYR221      0.2290
    140  O        102.7370   22.4640   40.7010 O.2   221  TYR221     -0.2864
    141  CB       105.9540   22.5420   40.7850 C.3   221  TYR221      0.0560
    142  CG       107.2460   21.8670   41.1580 C.ar  221  TYR221     -0.0198
    143  CD1      107.3700   20.4830   41.1410 C.ar  221  TYR221     -0.0009
    144  CD2      108.3520   22.6180   41.5160 C.ar  221  TYR221     -0.0009
    145  CE1      108.5640   19.8730   41.4670 C.ar  221  TYR221      0.0417
    146  CE2      109.5380   22.0210   41.8420 C.ar  221  TYR221      0.0417
    147  CZ       109.6460   20.6510   41.8190 C.ar  221  TYR221      0.1957
    148  OH       110.8390   20.0820   42.1730 O.3   221  TYR221     -0.2866
@<TRIPOS>BOND
     1   140   139    2
     2   141   142    1
     3   141   138    1
     4   143   142   ar
     5   143   145   ar
     6   142   144   ar
     7   139   138    1
     8   145   147   ar
     9   144   146   ar
    10   147   146   ar
    11   147   148    1
    12   138   137    1
    13   137   132   am
    14   129   128    2
    15    65    66    1
    16   132   131    1
    17   132   133    2
    18   128   127    1
    19   128   130   am
    20   131   130    1
    21   131   134    1
    22   126   127    1
    23    70    69    1
    24   135   134    1
    25    66    69    1
    26    66    67    1
    27   134   136    1
    28    31    32    1
    29    69    71    1
    30    32    33    1
    31    32    35    1
    32    67    72   am
    33    67    68    2
    34    37    36   ar
    35   117   118    2
    36   117   116    1
    37    33    39   am
    38    33    34    2
    39    72    73    1
    40    39    40    1
    41    43    40    1
    42    76    73    1
    43    76    77    1
    44   115   116    1
    45    35    36    1
    46    36    38   ar
    47    40    41    1
    48   116   119    1
    49    73    74    1
    50    86    87   ar
    51    86    84   ar
    52    81    80    2
    53    89    87   ar
    54    89    91   ar
    55    87    85   ar
    56    84    83   ar
    57    78    74   am
    58    78    79    1
    59    61    62    2
    60    61    60    1
    61    74    75    2
    62    91    90   ar
    63    41    42    2
    64    41    44   am
    65   119   120    1
    66    80    79    1
    67    80    92   am
    68    60    59    1
    69    60    63    1
    70    85    83   ar
    71    85    88   ar
    72    83    82    1
    73    79    82    1
    74    44    45    1
    75    90    88   ar
    76   121   120    1
    77   121   122    1
    78    93    92    1
    79    93    94    1
    80   124   123    1
    81    63    64    1
    82   111   110    1
    83   111   112    2
    84     9     7   ar
    85     9    10   ar
    86   122   123    2
    87     7     6   ar
    88    45    48    1
    89    45    46    1
    90    47    46    2
    91     1     2    1
    92   123   125    1
    93    94    96   am
    94    94    95    2
    95    96    97    1
    96   110   113    1
    97   110   109    1
    98    48    49    1
    99    46    50   am
   100    14    13    2
   101   113   114    1
   102    10     8   ar
   103    99    98    2
   104   108   107    2
   105     6     5    1
   106     6     8   ar
   107   100    97    1
   108   100   101    1
   109    97    98    1
   110     2     5    1
   111     2     3    1
   112   109   107   am
   113   114    49    1
   114    98   105   am
   115   107   106    1
   116    13    12    1
   117    50    51    1
   118     3     4    2
   119    11    12    1
   120    53    52    2
   121    52    51    1
   122   101   102    1
   123   105   106    1
   124    51    54    1
   125    12    15    1
   126    15    16    1
   127   102   103   ar
   128   102   104   ar
   129    54    55    1
   130    16    17   ar
   131    16    18   ar
   132    17    19   ar
   133    55    56    1
   134    23    24    1
   135    24    27    1
   136    24    25    1
   137    18    20   ar
   138    29    28    1
   139    19    21   ar
   140    27    28    1
   141    56    57    1
   142    28    30    1
   143    20    21   ar
   144    25    26    2
   145    21    22    1
   146    57    58    1
