@<TRIPOS>MOLECULE
tmp/1zrtE00.pdb
 203 196 0 0 0
SMALL
GASTEIGER

@<TRIPOS>ATOM
      1  N        -35.7460  -30.2900   22.2140 N.3    32  VAL32      -0.1231
      2  CA       -36.4380  -29.5280   23.2450 C.3    32  VAL32       0.1692
      3  C        -35.3800  -28.6020   23.8430 C.2    32  VAL32       0.2592
      4  O        -34.2720  -29.0430   24.1490 O.2    32  VAL32      -0.2718
      5  CB       -37.0480  -30.4520   24.3310 C.3    32  VAL32       0.0266
      6  CG1      -35.9510  -31.1490   25.1030 C.3    32  VAL32       0.0020
      7  CG2      -37.9470  -29.6470   25.2620 C.3    32  VAL32       0.0020
      8  N        -35.7340  -27.3240   23.9830 N.am   33  CYS33      -0.1970
      9  CA       -34.8590  -26.2560   24.4880 C.3    33  CYS33       0.1712
     10  C        -34.6170  -25.3380   23.2920 C.2    33  CYS33       0.2296
     11  O        -34.5940  -24.1220   23.4200 O.2    33  CYS33      -0.2864
     12  CB       -33.4890  -26.7660   24.9580 C.3    33  CYS33       0.0983
     13  SG       -33.3320  -27.6820   26.5280 S.3    33  CYS33      -0.0798
     14  N        -36.3960  -24.3950   21.4590 N.3    35  ALA35      -0.1231
     15  CA       -37.5960  -23.5820   21.3330 C.3    35  ALA35       0.1694
     16  C        -37.5420  -22.2290   22.0290 C.2    35  ALA35       0.2592
     17  O        -37.3540  -21.1950   21.3860 O.2    35  ALA35      -0.2718
     18  CB       -38.7900  -24.3650   21.8380 C.3    35  ALA35       0.0304
     19  N        -37.7150  -22.2320   23.3460 N.am   36  CYS36      -0.1956
     20  CA       -37.7110  -20.9830   24.0960 C.3    36  CYS36       0.1843
     21  C        -36.3230  -20.4290   24.4280 C.2    36  CYS36       0.2625
     22  O        -36.1890  -19.2600   24.7840 O.2    36  CYS36      -0.2714
     23  CB       -38.4910  -21.1400   25.3990 C.3    36  CYS36       0.0997
     24  SG       -40.1380  -21.9170   25.3030 S.3    36  CYS36      -0.0797
     25  N        -35.2930  -21.2590   24.3260 N.am   37  HIS37      -0.1973
     26  CA       -33.9410  -20.8060   24.6330 C.3    37  HIS37       0.1656
     27  C        -33.1130  -20.5610   23.3840 C.2    37  HIS37       0.2291
     28  O        -33.6570  -20.3440   22.3020 O.2    37  HIS37      -0.2864
     29  CB       -33.2340  -21.8230   25.5270 C.3    37  HIS37       0.0771
     30  CG       -33.6900  -21.7960   26.9540 C.ar   37  HIS37       0.0820
     31  ND1      -33.6370  -20.6570   27.7300 N.ar   37  HIS37      -0.2267
     32  CD2      -34.2200  -22.7620   27.7400 C.ar   37  HIS37       0.1154
     33  CE1      -34.1220  -20.9230   28.9300 C.ar   37  HIS37       0.1986
     34  NE2      -34.4820  -22.1930   28.9600 N.ar   37  HIS37      -0.2212
     35  N        -41.8340  -14.8000   26.5390 N.3    94  GLY94      -0.1210
     36  CA       -42.2210  -16.1960   26.5980 C.3    94  GLY94       0.1956
     37  C        -40.9520  -17.0090   26.4400 C.2    94  GLY94       0.2612
     38  O        -40.8540  -18.1430   26.9170 O.2    94  GLY94      -0.2717
     39  N        -39.9770  -16.4050   25.7630 N.am   95  MET95      -0.1965
     40  CA       -38.6810  -17.0230   25.5190 C.3    95  MET95       0.1736
     41  C        -37.8560  -16.9800   26.7920 C.2    95  MET95       0.2617
     42  O        -38.3280  -16.4960   27.8190 O.2    95  MET95      -0.2715
     43  CB       -37.9480  -16.2790   24.4060 C.3    95  MET95       0.0427
     44  CG       -38.5890  -16.4260   23.0410 C.3    95  MET95       0.0599
     45  SD       -38.5690  -18.1400   22.4420 S.3    95  MET95      -0.1393
     46  CE       -40.1230  -18.7780   23.1400 C.3    95  MET95       0.0692
     47  N        -36.6180  -17.4660   26.7230 N.am   96  GLY96      -0.1941
     48  CA       -35.7820  -17.4780   27.9100 C.3    96  GLY96       0.1998
     49  C        -34.2880  -17.2310   27.7770 C.2    96  GLY96       0.2480
     50  O        -33.7390  -17.1640   26.6710 O.2    96  GLY96      -0.2729
     51  N        -33.6010  -17.1230   28.9260 N.am   97  PRO97      -0.2726
     52  CA       -32.1630  -16.8810   29.0510 C.3    97  PRO97       0.1402
     53  C        -31.4170  -17.6810   28.0350 C.2    97  PRO97       0.2269
     54  O        -31.5450  -18.8950   27.9980 O.2    97  PRO97      -0.2865
     55  CB       -31.8460  -17.3660   30.4540 C.3    97  PRO97       0.0296
     56  CG       -33.1150  -17.1340   31.1890 C.3    97  PRO97       0.0237
     57  CD       -34.1540  -17.6060   30.2040 C.3    97  PRO97       0.0939
     58  N        -28.3240  -19.5780   26.3290 N.3    99  LEU99      -0.1245
     59  CA       -27.4810  -20.5300   27.0460 C.3    99  LEU99       0.1561
     60  C        -26.0640  -20.5610   26.5250 C.2    99  LEU99       0.2260
     61  O        -25.1860  -21.1150   27.1850 O.2    99  LEU99      -0.2867
     62  CB       -28.0370  -21.9510   26.9590 C.3    99  LEU99       0.0270
     63  CG       -29.4040  -22.2630   27.5470 C.3    99  LEU99       0.0019
     64  CD1      -29.5480  -21.6560   28.9310 C.3    99  LEU99       0.0001
     65  CD2      -30.4460  -21.7200   26.6050 C.3    99  LEU99       0.0001
     66  N        -24.3550  -20.3670   29.4060 N.3   102  MET102     -0.1245
     67  CA       -25.0990  -20.4460   30.6570 C.3   102  MET102      0.1570
     68  C        -24.5120  -21.5470   31.5250 C.2   102  MET102      0.2261
     69  O        -24.6360  -21.5200   32.7490 O.2   102  MET102     -0.2867
     70  CB       -26.5770  -20.7400   30.3740 C.3   102  MET102      0.0387
     71  CG       -27.3420  -21.3470   31.5460 C.3   102  MET102      0.0595
     72  SD       -27.3450  -20.3560   33.0430 S.3   102  MET102     -0.1393
     73  CE       -28.8510  -19.4240   32.8350 C.3   102  MET102      0.0692
     74  N        -23.4020  -20.4520   36.7010 N.3   106  ARG106     -0.1245
     75  CA       -24.0100  -20.5740   38.0270 C.3   106  ARG106      0.1563
     76  C        -23.2070  -21.3680   39.0530 C.2   106  ARG106      0.2260
     77  O        -22.1200  -21.8810   38.7710 O.2   106  ARG106     -0.2867
     78  CB       -25.4060  -21.1880   37.9150 C.3   106  ARG106      0.0307
     79  CG       -26.4160  -20.3660   37.1360 C.3   106  ARG106      0.0489
     80  CD       -26.8090  -19.0920   37.8710 C.3   106  ARG106      0.2205
     81  NE       -27.9440  -18.4330   37.2270 N.pl3 106  ARG106     -0.0865
     82  CZ       -27.9600  -18.0370   35.9580 C.cat 106  ARG106      0.5346
     83  NH1      -26.9020  -18.2300   35.1850 N.pl3 106  ARG106      0.1354
     84  NH2      -29.0370  -17.4490   35.4560 N.pl3 106  ARG106      0.1354
     85  N        -26.0430  -27.6250   38.4270 N.3   129  TYR129     -0.1227
     86  CA       -27.1690  -26.8080   38.8470 C.3   129  TYR129      0.1736
     87  C        -28.1470  -26.8400   37.6870 C.2   129  TYR129      0.2595
     88  O        -29.3490  -27.0070   37.8940 O.2   129  TYR129     -0.2718
     89  CB       -26.7530  -25.3640   39.0900 C.3   129  TYR129      0.0548
     90  CG       -27.9090  -24.3770   39.0710 C.ar  129  TYR129     -0.0200
     91  CD1      -28.6070  -24.0530   40.2390 C.ar  129  TYR129     -0.0009
     92  CD2      -28.2900  -23.7510   37.8810 C.ar  129  TYR129     -0.0009
     93  CE1      -29.6480  -23.1250   40.2240 C.ar  129  TYR129      0.0417
     94  CE2      -29.3260  -22.8250   37.8520 C.ar  129  TYR129      0.0417
     95  CZ       -30.0000  -22.5140   39.0280 C.ar  129  TYR129      0.1957
     96  OH       -31.0100  -21.5780   39.0130 O.3   129  TYR129     -0.2866
     97  N        -27.6430  -26.6680   36.4640 N.am  130  ILE130     -0.1980
     98  CA       -28.5400  -26.7150   35.3130 C.3   130  ILE130      0.1595
     99  C        -29.4000  -27.9700   35.4570 C.2   130  ILE130      0.2287
    100  O        -30.6290  -27.9100   35.3960 O.2   130  ILE130     -0.2864
    101  CB       -27.7830  -26.8090   33.9790 C.3   130  ILE130      0.0276
    102  CG1      -27.0950  -25.4860   33.6630 C.3   130  ILE130      0.0022
    103  CG2      -28.7540  -27.1700   32.8590 C.3   130  ILE130      0.0022
    104  CD1      -26.5080  -25.4320   32.2600 C.3   130  ILE130      0.0001
    105  N        -31.7430  -28.3610   38.0890 N.3   133  TYR133     -0.1227
    106  CA       -32.7480  -27.3650   37.7650 C.3   133  TYR133      0.1736
    107  C        -33.7490  -27.9540   36.7950 C.2   133  TYR133      0.2595
    108  O        -34.9530  -27.9310   37.0420 O.2   133  TYR133     -0.2718
    109  CB       -32.1050  -26.1360   37.1400 C.3   133  TYR133      0.0548
    110  CG       -33.1130  -25.1060   36.6990 C.ar  133  TYR133     -0.0200
    111  CD1      -33.9380  -24.4620   37.6210 C.ar  133  TYR133     -0.0009
    112  CD2      -33.2390  -24.7710   35.3610 C.ar  133  TYR133     -0.0009
    113  CE1      -34.8600  -23.5060   37.2140 C.ar  133  TYR133      0.0417
    114  CE2      -34.1510  -23.8300   34.9500 C.ar  133  TYR133      0.0417
    115  CZ       -34.9580  -23.1940   35.8710 C.ar  133  TYR133      0.1957
    116  OH       -35.8460  -22.2360   35.4360 O.3   133  TYR133     -0.2866
    117  N        -33.2440  -28.4660   35.6780 N.am  134  VAL134     -0.1980
    118  CA       -34.1030  -29.0860   34.6830 C.3   134  VAL134      0.1595
    119  C        -34.9340  -30.1040   35.4360 C.2   134  VAL134      0.2287
    120  O        -36.0900  -30.3600   35.1020 O.2   134  VAL134     -0.2864
    121  CB       -33.2790  -29.8160   33.5980 C.3   134  VAL134      0.0276
    122  CG1      -34.0870  -30.9510   32.9940 C.3   134  VAL134      0.0022
    123  CG2      -32.8840  -28.8410   32.5110 C.3   134  VAL134      0.0022
    124  N        -34.0890  -23.6120   41.9330 N.3   157  PHE157     -0.1241
    125  CA       -34.0850  -22.2690   41.3460 C.3   157  PHE157      0.1605
    126  C        -34.4970  -21.1380   42.2920 C.2   157  PHE157      0.2264
    127  O        -35.6730  -21.0120   42.6300 O.2   157  PHE157     -0.2867
    128  CB       -35.0220  -22.2540   40.1380 C.3   157  PHE157      0.0534
    129  CG       -35.1700  -20.9040   39.4970 C.ar  157  PHE157     -0.0203
    130  CD1      -34.2240  -20.4410   38.5910 C.ar  157  PHE157     -0.0042
    131  CD2      -36.2580  -20.0910   39.8060 C.ar  157  PHE157     -0.0042
    132  CE1      -34.3580  -19.1920   38.0040 C.ar  157  PHE157     -0.0003
    133  CE2      -36.3990  -18.8350   39.2210 C.ar  157  PHE157     -0.0003
    134  CZ       -35.4470  -18.3860   38.3180 C.ar  157  PHE157     -0.0000
    135  N        -35.0770  -17.1750   42.9720 N.3   159  ILE159     -0.1245
    136  CA       -35.3610  -15.8680   42.3570 C.3   159  ILE159      0.1561
    137  C        -36.8100  -15.8140   41.8430 C.2   159  ILE159      0.2260
    138  O        -37.0440  -15.8170   40.6320 O.2   159  ILE159     -0.2867
    139  CB       -34.4150  -15.5660   41.1600 C.3   159  ILE159      0.0252
    140  CG1      -33.9260  -14.1390   41.2330 C.3   159  ILE159      0.0019
    141  CG2      -35.0420  -15.9120   39.8350 C.3   159  ILE159      0.0019
    142  CD1      -32.9840  -13.9410   42.3710 C.3   159  ILE159      0.0001
    143  N        -40.1220  -20.0900   38.8860 N.3   175  ALA175     -0.1231
    144  CA       -39.6230  -19.5690   37.6190 C.3   175  ALA175      0.1694
    145  C        -40.7930  -19.4680   36.6580 C.2   175  ALA175      0.2592
    146  O        -41.8370  -20.0720   36.8880 O.2   175  ALA175     -0.2718
    147  CB       -38.5700  -20.5000   37.0520 C.3   175  ALA175      0.0304
    148  N        -40.6270  -18.7090   35.5820 N.am  176  ARG176     -0.1966
    149  CA       -41.7040  -18.5690   34.6150 C.3   176  ARG176      0.1729
    150  C        -41.5360  -19.5430   33.4570 C.2   176  ARG176      0.2616
    151  O        -42.0530  -19.3190   32.3670 O.2   176  ARG176     -0.2715
    152  CB       -41.7910  -17.1190   34.1130 C.3   176  ARG176      0.0348
    153  CG       -40.4850  -16.5200   33.6040 C.3   176  ARG176      0.0492
    154  CD       -40.5680  -14.9910   33.5460 C.3   176  ARG176      0.2205
    155  NE       -39.3190  -14.3810   33.0930 N.pl3 176  ARG176     -0.0865
    156  CZ       -38.9290  -14.3210   31.8230 C.cat 176  ARG176      0.5346
    157  NH1      -39.6950  -14.8300   30.8670 N.pl3 176  ARG176      0.1354
    158  NH2      -37.7680  -13.7610   31.5060 N.pl3 176  ARG176      0.1354
    159  N        -40.8100  -20.6320   33.7060 N.am  177  MET177     -0.1964
    160  CA       -40.5920  -21.6690   32.6960 C.3   177  MET177      0.1722
    161  C        -41.4440  -22.8990   32.9970 C.2   177  MET177      0.2458
    162  O        -41.4910  -23.3800   34.1310 O.2   177  MET177     -0.2730
    163  CB       -39.1200  -22.0950   32.6340 C.3   177  MET177      0.0427
    164  CG       -38.8800  -23.3350   31.7700 C.3   177  MET177      0.0599
    165  SD       -37.1510  -23.8220   31.5940 S.3   177  MET177     -0.1393
    166  CE       -36.7360  -24.1160   33.2430 C.3   177  MET177      0.0692
    167  N        -42.1280  -23.4260   31.9730 N.am  178  PRO178     -0.2727
    168  CA       -42.9840  -24.6040   32.1160 C.3   178  PRO178      0.1402
    169  C        -42.1950  -25.8980   31.9330 C.2   178  PRO178      0.2269
    170  O        -41.4380  -26.0400   30.9690 O.2   178  PRO178     -0.2865
    171  CB       -44.0100  -24.4040   31.0110 C.3   178  PRO178      0.0296
    172  CG       -43.1690  -23.8440   29.9130 C.3   178  PRO178      0.0237
    173  CD       -42.2810  -22.8300   30.6310 C.3   178  PRO178      0.0939
    174  N        -39.9790  -28.7380   31.1100 N.3   180  PRO180     -0.2102
    175  CA       -39.4090  -29.0880   29.8090 C.3   180  PRO180      0.1504
    176  C        -39.6880  -30.5320   29.4440 C.2   180  PRO180      0.2575
    177  O        -40.2900  -30.8260   28.4090 O.2   180  PRO180     -0.2718
    178  CB       -37.9250  -28.8430   30.0250 C.3   180  PRO180      0.0282
    179  CG       -37.7390  -29.3660   31.4200 C.3   180  PRO180      0.0208
    180  CD       -38.9490  -28.8090   32.1630 C.3   180  PRO180      0.0893
    181  N        -39.2320  -31.4210   30.3190 N.am  181  LEU181     -0.1980
    182  CA       -39.3820  -32.8540   30.1440 C.3   181  LEU181      0.1596
    183  C        -40.4880  -33.4340   31.0110 C.2   181  LEU181      0.2287
    184  O        -40.6910  -33.0180   32.1540 O.2   181  LEU181     -0.2864
    185  CB       -38.0660  -33.5550   30.4820 C.3   181  LEU181      0.0297
    186  CG       -36.8740  -33.4350   29.5300 C.3   181  LEU181      0.0022
    187  CD1      -36.9960  -32.2160   28.6290 C.3   181  LEU181      0.0001
    188  CD2      -35.6090  -33.3660   30.3650 C.3   181  LEU181      0.0001
    189  N        -28.5220  -33.0200   28.6460 N.3   203  VAL203     -0.1245
    190  CA       -28.5070  -31.6450   28.1450 C.3   203  VAL203      0.1561
    191  C        -27.3700  -30.9700   28.8690 C.2   203  VAL203      0.2260
    192  O        -26.3890  -30.5520   28.2410 O.2   203  VAL203     -0.2867
    193  CB       -29.7810  -30.8090   28.4660 C.3   203  VAL203      0.0252
    194  CG1      -30.7960  -30.9300   27.3520 C.3   203  VAL203      0.0019
    195  CG2      -30.3580  -31.2160   29.7940 C.3   203  VAL203      0.0019
    196  N        -24.6240  -28.7490   27.3120 N.3   207  LEU207     -0.1245
    197  CA       -24.4630  -27.3240   27.5900 C.3   207  LEU207      0.1561
    198  C        -23.0550  -27.0350   28.0830 C.2   207  LEU207      0.2260
    199  O        -22.3310  -26.2490   27.4830 O.2   207  LEU207     -0.2867
    200  CB       -25.4700  -26.8620   28.6440 C.3   207  LEU207      0.0270
    201  CG       -26.9280  -26.8280   28.2010 C.3   207  LEU207      0.0019
    202  CD1      -27.7890  -26.2790   29.3330 C.3   207  LEU207      0.0001
    203  CD2      -27.0530  -25.9700   26.9400 C.3   207  LEU207      0.0001
@<TRIPOS>BOND
     1    15    14    1
     2    15    18    1
     3    15    16    1
     4    17    16    2
     5    16    19   am
     6     1     2    1
     7    28    27    2
     8    45    44    1
     9    45    46    1
    10    44    43    1
    11     2     3    1
    12     2     5    1
    13    10    11    2
    14    10     9    1
    15    19    20    1
    16    27    26    1
    17     3     8   am
    18     3     4    2
    19     8     9    1
    20    20    21    1
    21    20    23    1
    22    25    21   am
    23    25    26    1
    24     5     6    1
    25     5     7    1
    26    43    40    1
    27    21    22    2
    28     9    12    1
    29    26    29    1
    30    12    13    1
    31    24    23    1
    32    40    39    1
    33    40    41    1
    34    29    30    1
    35    39    37   am
    36    58    59    1
    37    37    36    1
    38    37    38    2
    39    60    59    1
    40    60    61    2
    41    35    36    1
    42    65    63    1
    43    50    49    2
    44    47    41   am
    45    47    48    1
    46    41    42    2
    47   203   201    1
    48    30    31   ar
    49    30    32   ar
    50    62    59    1
    51    62    63    1
    52   196   197    1
    53   194   193    1
    54   199   198    2
    55    63    64    1
    56   197   198    1
    57   197   200    1
    58    31    33   ar
    59    32    34   ar
    60    49    48    1
    61    49    51   am
    62    54    53    2
    63    53    52    1
    64   190   193    1
    65   190   189    1
    66   190   191    1
    67   201   200    1
    68   201   202    1
    69   192   191    2
    70   177   176    2
    71   193   195    1
    72   187   186    1
    73    51    52    1
    74    51    57    1
    75    33    34   ar
    76    52    55    1
    77    66    67    1
    78   176   175    1
    79   176   181   am
    80   186   188    1
    81   186   185    1
    82   175   178    1
    83   175   174    1
    84   172   173    1
    85   172   171    1
    86   178   179    1
    87   182   181    1
    88   182   185    1
    89   182   183    1
    90    57    56    1
    91    70    67    1
    92    70    71    1
    93    55    56    1
    94   173   167    1
    95    67    68    1
    96   157   156    1
    97   170   169    2
    98   171   168    1
    99   183   184    2
   100   174   180    1
   101   179   180    1
   102   158   156    1
   103    68    69    2
   104    71    72    1
   105   165   164    1
   106   165   166    1
   107   164   163    1
   108   156   155    2
   109   169   168    1
   110   167   168    1
   111   167   161   am
   112   104   102    1
   113   151   150    2
   114   123   121    1
   115   163   160    1
   116   160   161    1
   117   160   159    1
   118    73    72    1
   119   103   101    1
   120   122   121    1
   121   161   162    2
   122   155   154    1
   123   150   159   am
   124   150   149    1
   125   154   153    1
   126   121   118    1
   127   153   152    1
   128   102   101    1
   129   101    98    1
   130   152   149    1
   131   149   148    1
   132   118   119    1
   133   118   117    1
   134   114   112   ar
   135   114   115   ar
   136   120   119    2
   137    83    82    1
   138    98    99    1
   139    98    97    1
   140   112   110   ar
   141   100    99    2
   142   116   115    1
   143    84    82    1
   144   148   145   am
   145   117   107   am
   146   115   113   ar
   147    82    81    2
   148    97    87   am
   149   145   146    2
   150   145   144    1
   151   110   109    1
   152   110   111   ar
   153    74    75    1
   154   107   108    2
   155   107   106    1
   156   147   144    1
   157    79    80    1
   158    79    78    1
   159   109   106    1
   160   113   111   ar
   161    81    80    1
   162   144   143    1
   163    87    88    2
   164    87    86    1
   165   106   105    1
   166    94    92   ar
   167    94    95   ar
   168    92    90   ar
   169    78    75    1
   170   132   134   ar
   171   132   130   ar
   172    75    76    1
   173   134   133   ar
   174    85    86    1
   175   130   129   ar
   176    77    76    2
   177    86    89    1
   178    96    95    1
   179    95    93   ar
   180    90    89    1
   181    90    91   ar
   182   133   131   ar
   183   129   131   ar
   184   129   128    1
   185   141   139    1
   186   128   125    1
   187    93    91   ar
   188   138   137    2
   189   139   140    1
   190   139   136    1
   191   140   142    1
   192   125   124    1
   193   125   126    1
   194   137   136    1
   195   126   127    2
   196   136   135    1
