@<TRIPOS>MOLECULE
tmp/1zrzA00.pdb
 167 157 0 0 0
SMALL
GASTEIGER

@<TRIPOS>ATOM
      1  N        -16.2620   15.0910   19.6990 N.3    12  ILE12      -0.1231
      2  CA       -15.5440   15.6830   20.8260 C.3    12  ILE12       0.1692
      3  C        -15.5270   17.2020   20.7520 C.2    12  ILE12       0.2592
      4  O        -15.1800   17.8630   21.7180 O.2    12  ILE12      -0.2718
      5  CB       -14.0750   15.1780   20.8670 C.3    12  ILE12       0.0266
      6  CG1      -13.3840   15.5190   19.5390 C.3    12  ILE12       0.0019
      7  CG2      -14.0430   13.6790   21.1230 C.3    12  ILE12       0.0020
      8  CD1      -12.0560   14.8660   19.3300 C.3    12  ILE12       0.0001
      9  N        -15.8900   17.7510   19.5990 N.am   13  GLY13      -0.1957
     10  CA       -15.8860   19.1960   19.4470 C.3    13  GLY13       0.1869
     11  C        -16.8600   19.7300   18.4090 C.2    13  GLY13       0.2309
     12  O        -16.7810   19.3590   17.2310 O.2    13  GLY13      -0.2863
     13  N        -18.3890   26.3200   12.0120 N.3    17  TYR17      -0.1241
     14  CA       -17.5610   26.0100   10.8550 C.3    17  TYR17       0.1605
     15  C        -17.2330   24.5020   10.8160 C.2    17  TYR17       0.2264
     16  O        -17.4000   23.8490    9.7790 O.2    17  TYR17      -0.2867
     17  CB       -16.2660   26.8260   10.9660 C.3    17  TYR17       0.0534
     18  CG       -15.5130   26.5510   12.2770 C.ar   17  TYR17      -0.0201
     19  CD1      -16.2110   26.3200   13.4830 C.ar   17  TYR17      -0.0009
     20  CD2      -14.1200   26.4750   12.3080 C.ar   17  TYR17      -0.0009
     21  CE1      -15.5490   26.0120   14.6640 C.ar   17  TYR17       0.0417
     22  CE2      -13.4420   26.1700   13.4990 C.ar   17  TYR17       0.0417
     23  CZ       -14.1640   25.9350   14.6700 C.ar   17  TYR17       0.1957
     24  OH       -13.4990   25.5960   15.8360 O.3    17  TYR17      -0.2866
     25  N        -15.3210   18.2550   15.3160 N.3    20  VAL20      -0.1245
     26  CA       -14.1450   17.4170   15.4310 C.3    20  VAL20       0.1561
     27  C        -14.5330   16.0820   16.0280 C.2    20  VAL20       0.2260
     28  O        -14.8140   15.9790   17.2320 O.2    20  VAL20      -0.2867
     29  CB       -13.0500   18.0530   16.3030 C.3    20  VAL20       0.0252
     30  CG1      -11.8810   17.0820   16.4310 C.3    20  VAL20       0.0019
     31  CG2      -12.5790   19.3800   15.6760 C.3    20  VAL20       0.0019
     32  N         -8.2950   12.1710   15.2710 N.3    33  ALA33      -0.1245
     33  CA        -9.4230   13.0600   15.4310 C.3    33  ALA33       0.1562
     34  C         -9.6450   13.6190   14.0310 C.2    33  ALA33       0.2260
     35  O         -8.7250   14.2120   13.4670 O.2    33  ALA33      -0.2867
     36  CB        -9.0720   14.1670   16.3810 C.3    33  ALA33       0.0290
     37  N        -11.4900   16.2290   11.3960 N.3    35  LYS35      -0.1245
     38  CA       -12.1640   17.5220   11.3740 C.3    35  LYS35       0.1561
     39  C        -13.1510   17.5730   10.2150 C.2    35  LYS35       0.2260
     40  O        -12.7670   17.4120    9.0580 O.2    35  LYS35      -0.2867
     41  CB       -11.1380   18.6510   11.2510 C.3    35  LYS35       0.0271
     42  CG       -11.7450   20.0380   11.2160 C.3    35  LYS35       0.0035
     43  CD       -10.6810   21.0770   11.4550 C.3    35  LYS35       0.0206
     44  CE       -11.1120   22.4460   10.9630 C.3    35  LYS35       0.1093
     45  NZ       -10.2110   23.5170   11.4690 N.3    35  LYS35      -0.1314
     46  N         -4.9010   25.7970    5.8780 N.3    54  GLU54      -0.1245
     47  CA        -4.9460   24.8450    6.9770 C.3    54  GLU54       0.1567
     48  C         -4.2570   23.5830    6.4740 C.2    54  GLU54       0.2260
     49  O         -3.5160   22.9300    7.2060 O.2    54  GLU54      -0.2867
     50  CB        -6.3890   24.5150    7.3620 C.3    54  GLU54       0.0388
     51  CG        -6.4960   23.4650    8.4750 C.3    54  GLU54       0.1160
     52  CD        -7.5880   23.7790    9.4880 C.2    54  GLU54       0.3649
     53  OE1       -8.7750   23.7070    9.1040 O.co2  54  GLU54      -0.2457
     54  OE2       -7.2580   24.1010   10.6620 O.co2  54  GLU54      -0.2457
     55  N         -0.8820   21.9160    7.9150 N.3    58  PHE58      -0.1241
     56  CA        -0.9870   20.5180    8.3410 C.3    58  PHE58       0.1605
     57  C          0.0120   19.6360    7.5740 C.2    58  PHE58       0.2264
     58  O          0.3870   18.5520    8.0370 O.2    58  PHE58      -0.2867
     59  CB        -2.4220   20.0070    8.1290 C.3    58  PHE58       0.0534
     60  CG        -3.3030   20.0980    9.3590 C.ar   58  PHE58      -0.0203
     61  CD1       -4.6040   20.5950    9.2660 C.ar   58  PHE58      -0.0042
     62  CD2       -2.8500   19.6500   10.5960 C.ar   58  PHE58      -0.0042
     63  CE1       -5.4430   20.6450   10.3860 C.ar   58  PHE58      -0.0003
     64  CE2       -3.6800   19.6940   11.7220 C.ar   58  PHE58      -0.0003
     65  CZ        -4.9810   20.1930   11.6180 C.ar   58  PHE58      -0.0000
     66  N          0.5450   19.1680   15.6390 N.3    68  VAL68      -0.1245
     67  CA        -0.3520   18.1020   15.2070 C.3    68  VAL68       0.1561
     68  C         -0.1940   17.6310   13.7660 C.2    68  VAL68       0.2260
     69  O         -0.2500   18.4280   12.8310 O.2    68  VAL68      -0.2867
     70  CB        -1.8240   18.5000   15.4260 C.3    68  VAL68       0.0252
     71  CG1       -2.1100   18.6310   16.9080 C.3    68  VAL68       0.0019
     72  CG2       -2.1170   19.8060   14.7340 C.3    68  VAL68       0.0019
     73  N         -6.6580   13.7720   11.3890 N.3    84  ILE84      -0.1231
     74  CA        -5.5560   14.4630   12.0430 C.3    84  ILE84       0.1692
     75  C         -4.9750   13.6120   13.1390 C.2    84  ILE84       0.2592
     76  O         -5.6160   12.6850   13.6000 O.2    84  ILE84      -0.2718
     77  CB        -6.0540   15.8070   12.6790 C.3    84  ILE84       0.0266
     78  CG1       -6.7120   16.6720   11.6110 C.3    84  ILE84       0.0019
     79  CG2       -4.9010   16.5840   13.2980 C.3    84  ILE84       0.0020
     80  CD1       -5.8420   16.9290   10.3880 C.3    84  ILE84       0.0001
     81  N         -3.7540   13.9370   13.5530 N.am   85  GLU85      -0.1966
     82  CA        -3.0840   13.2330   14.6450 C.3    85  GLU85       0.1733
     83  C         -3.9790   13.4960   15.8480 C.2    85  GLU85       0.2616
     84  O         -4.5480   14.5730   15.9780 O.2    85  GLU85      -0.2715
     85  CB        -1.7050   13.8410   14.8840 C.3    85  GLU85       0.0429
     86  CG        -0.7740   13.0200   15.7510 C.3    85  GLU85       0.1163
     87  CD         0.4840   13.7940   16.1580 C.2    85  GLU85       0.3649
     88  OE1        1.1120   14.4330   15.2760 O.co2  85  GLU85      -0.2457
     89  OE2        0.8470   13.7560   17.3600 O.co2  85  GLU85      -0.2457
     90  N         -4.1100   12.5290   16.7330 N.am   86  TYR86      -0.1960
     91  CA        -4.9810   12.7280   17.8740 C.3    86  TYR86       0.1771
     92  C         -4.2630   13.1010   19.1810 C.2    86  TYR86       0.2619
     93  O         -3.1540   12.6470   19.4550 O.2    86  TYR86      -0.2715
     94  CB        -5.8370   11.4750   18.0500 C.3    86  TYR86       0.0574
     95  CG        -6.5970   11.4390   19.3340 C.ar   86  TYR86      -0.0198
     96  CD1       -7.7230   12.2270   19.5270 C.ar   86  TYR86      -0.0009
     97  CD2       -6.1630   10.6410   20.3780 C.ar   86  TYR86      -0.0009
     98  CE1       -8.4030   12.2230   20.7450 C.ar   86  TYR86       0.0417
     99  CE2       -6.8300   10.6220   21.5980 C.ar   86  TYR86       0.0417
    100  CZ        -7.9460   11.4150   21.7810 C.ar   86  TYR86       0.1957
    101  OH        -8.5670   11.4020   23.0100 O.3    86  TYR86      -0.2866
    102  N         -4.9070   13.9480   19.9790 N.am   87  VAL87      -0.1963
    103  CA        -4.3490   14.4020   21.2580 C.3    87  VAL87       0.1727
    104  C         -5.4020   14.2190   22.3470 C.2    87  VAL87       0.2616
    105  O         -6.5910   14.3540   22.0770 O.2    87  VAL87      -0.2715
    106  CB        -3.9540   15.8890   21.1880 C.3    87  VAL87       0.0290
    107  CG1       -3.3100   16.3330   22.5070 C.3    87  VAL87       0.0023
    108  CG2       -3.0250   16.1080   19.9990 C.3    87  VAL87       0.0023
    109  N         -4.9730   13.9400   23.5750 N.am   88  ASN88      -0.1972
    110  CA        -5.9270   13.6980   24.6560 C.3    88  ASN88       0.1688
    111  C         -5.4930   14.1980   26.0430 C.2    88  ASN88       0.2292
    112  O         -5.8270   13.6010   27.0670 O.2    88  ASN88      -0.2864
    113  CB        -6.1950   12.1990   24.7280 C.3    88  ASN88       0.1181
    114  CG        -4.9830   11.4260   25.2050 C.2    88  ASN88       0.2629
    115  OD1       -4.9000   11.0390   26.3740 O.2    88  ASN88      -0.2716
    116  ND2       -4.0180   11.2220   24.3100 N.am   88  ASN88      -0.0877
    117  N         -5.8570   17.5640   26.7770 N.3    90  GLY90      -0.1210
    118  CA        -6.7200   18.6960   27.0420 C.3    90  GLY90       0.1956
    119  C         -6.0250   19.9740   26.6330 C.2    90  GLY90       0.2611
    120  O         -4.8650   19.9440   26.2270 O.2    90  GLY90      -0.2717
    121  N         -6.7340   21.0940   26.7250 N.am   91  ASP91      -0.1973
    122  CA        -6.1670   22.3840   26.3690 C.3    91  ASP91       0.1709
    123  C         -5.7990   23.1200   27.6520 C.2    91  ASP91       0.2293
    124  O         -6.5630   23.1090   28.6100 O.2    91  ASP91      -0.2864
    125  CB        -7.1740   23.1940   25.5390 C.3    91  ASP91       0.1436
    126  CG        -8.4350   23.5590   26.3150 C.2    91  ASP91       0.3671
    127  OD1       -9.3640   24.1460   25.7130 O.co2  91  ASP91      -0.2456
    128  OD2       -8.5070   23.2680   27.5220 O.co2  91  ASP91      -0.2456
    129  N         -6.6440   27.5960   24.9420 N.3   134  ASP134     -0.1225
    130  CA        -7.3370   26.3880   24.5280 C.3   134  ASP134      0.1805
    131  C         -6.8850   25.8270   23.1810 C.2   134  ASP134      0.2597
    132  O         -7.5140   24.9170   22.6440 O.2   134  ASP134     -0.2718
    133  CB        -8.8550   26.5890   24.5460 C.3   134  ASP134      0.1424
    134  CG        -9.2850   27.8600   23.8710 C.2   134  ASP134      0.3668
    135  OD1       -8.9530   28.9440   24.4160 O.co2 134  ASP134     -0.2456
    136  OD2       -9.9540   27.7720   22.8070 O.co2 134  ASP134     -0.2456
    137  N         -5.7820   26.3520   22.6500 N.am  135  ASN135     -0.1974
    138  CA        -5.2370   25.8720   21.3810 C.3   135  ASN135      0.1688
    139  C         -4.0160   24.9920   21.6210 C.2   135  ASN135      0.2292
    140  O         -3.5580   24.2570   20.7360 O.2   135  ASN135     -0.2864
    141  CB        -4.8400   27.0420   20.4930 C.3   135  ASN135      0.1181
    142  CG        -5.9670   27.5060   19.6130 C.2   135  ASN135      0.2629
    143  OD1       -6.6540   26.6960   18.9860 O.2   135  ASN135     -0.2716
    144  ND2       -6.1550   28.8180   19.5400 N.am  135  ASN135     -0.0877
    145  N         -2.9140   21.9770   23.2990 N.3   137  LEU137     -0.1245
    146  CA        -3.4180   20.7700   23.9210 C.3   137  LEU137      0.1561
    147  C         -2.2760   20.0440   24.6220 C.2   137  LEU137      0.2260
    148  O         -1.0980   20.3630   24.4200 O.2   137  LEU137     -0.2867
    149  CB        -4.0480   19.8620   22.8630 C.3   137  LEU137      0.0270
    150  CG        -5.1940   20.4830   22.0690 C.3   137  LEU137      0.0019
    151  CD1       -5.7750   19.4500   21.1320 C.3   137  LEU137      0.0001
    152  CD2       -6.2570   20.9980   23.0200 C.3   137  LEU137      0.0001
    153  N         -2.3420   23.6650   18.0290 N.3   147  THR147     -0.1203
    154  CA        -3.4310   23.2050   17.1810 C.3   147  THR147      0.1994
    155  C         -4.1830   24.3290   16.4530 C.2   147  THR147      0.2617
    156  O         -3.9230   25.5100   16.6720 O.2   147  THR147     -0.2717
    157  CB        -4.4190   22.3630   18.0170 C.3   147  THR147      0.1784
    158  OG1       -5.2090   21.5620   17.1420 O.3   147  THR147     -0.2211
    159  CG2       -5.3250   23.2500   18.8390 C.3   147  THR147      0.0376
    160  N         -5.1150   23.9590   15.5820 N.am  148  ASP148     -0.1973
    161  CA        -5.8840   24.9480   14.8310 C.3   148  ASP148      0.1709
    162  C         -4.9660   25.7330   13.9050 C.2   148  ASP148      0.2293
    163  O         -4.0490   26.4100   14.3710 O.2   148  ASP148     -0.2864
    164  CB        -6.5910   25.9220   15.7800 C.3   148  ASP148      0.1436
    165  CG        -7.4750   26.9230   15.0420 C.2   148  ASP148      0.3671
    166  OD1       -6.9560   27.6630   14.1790 O.co2 148  ASP148     -0.2456
    167  OD2       -8.6900   26.9730   15.3190 O.co2 148  ASP148     -0.2456
@<TRIPOS>BOND
     1    46    47    1
     2    48    47    1
     3    48    49    2
     4    47    50    1
     5    50    51    1
     6    57    58    2
     7    57    56    1
     8    55    56    1
     9    59    56    1
    10    59    60    1
    11    51    52    1
    12    40    39    2
    13    53    52   ar
    14    61    60   ar
    15    61    63   ar
    16    60    62   ar
    17    52    54   ar
    18    16    15    2
    19    39    38    1
    20    63    65   ar
    21    80    78    1
    22    62    64   ar
    23    15    14    1
    24    14    17    1
    25    14    13    1
    26    44    43    1
    27    44    45    1
    28    17    18    1
    29    42    41    1
    30    42    43    1
    31    41    38    1
    32    38    37    1
    33    73    74    1
    34    78    77    1
    35    65    64   ar
    36    74    77    1
    37    74    75    1
    38    18    20   ar
    39    18    19   ar
    40    20    22   ar
    41    77    79    1
    42    69    68    2
    43    75    81   am
    44    75    76    2
    45    35    34    2
    46    19    21   ar
    47    22    23   ar
    48    81    82    1
    49    68    67    1
    50   162   163    2
    51   162   161    1
    52    34    33    1
    53   166   165   ar
    54    82    85    1
    55    82    83    1
    56    21    23   ar
    57    23    24    1
    58    72    70    1
    59   161   160    1
    60   161   164    1
    61    85    86    1
    62   165   167   ar
    63   165   164    1
    64    67    70    1
    65    67    66    1
    66    32    33    1
    67    88    87   ar
    68    25    26    1
    69    70    71    1
    70    26    27    1
    71    26    29    1
    72    33    36    1
    73   160   155   am
    74    31    29    1
    75    86    87    1
    76    83    84    2
    77    83    90   am
    78    27    28    2
    79    87    89   ar
    80    29    30    1
    81   155   156    2
    82   155   154    1
    83    90    91    1
    84   158   157    1
    85   154   157    1
    86   154   153    1
    87    12    11    2
    88    91    94    1
    89    91    92    1
    90   157   159    1
    91    94    95    1
    92    11    10    1
    93   143   142    2
    94    92    93    2
    95    92   102   am
    96     8     6    1
    97    95    96   ar
    98    95    97   ar
    99    10     9    1
   100    96    98   ar
   101     6     5    1
   102   144   142   am
   103     9     3   am
   104   142   141    1
   105     1     2    1
   106   102   103    1
   107   108   106    1
   108    97    99   ar
   109   141   138    1
   110   140   139    2
   111    98   100   ar
   112     3     2    1
   113     3     4    2
   114     2     5    1
   115     5     7    1
   116   151   150    1
   117   106   103    1
   118   106   107    1
   119   103   104    1
   120   138   139    1
   121   138   137    1
   122    99   100   ar
   123   100   101    1
   124   150   149    1
   125   150   152    1
   126   105   104    2
   127   104   109   am
   128   132   131    2
   129   137   131   am
   130   136   134   ar
   131   149   146    1
   132   131   130    1
   133   145   146    1
   134   109   110    1
   135   134   135   ar
   136   134   133    1
   137   146   147    1
   138   116   114   am
   139   148   147    2
   140   130   133    1
   141   130   129    1
   142   110   113    1
   143   110   111    1
   144   113   114    1
   145   114   115    2
   146   125   126    1
   147   125   122    1
   148   127   126   ar
   149   111   112    2
   150   120   119    2
   151   126   128   ar
   152   122   121    1
   153   122   123    1
   154   119   121   am
   155   119   118    1
   156   117   118    1
   157   123   124    2
