@<TRIPOS>MOLECULE
tmp/1zs0A00.pdb
 178 177 0 0 0
SMALL
GASTEIGER

@<TRIPOS>ATOM
      1  N         16.2430   28.0570    9.6070 N.3    79  GLY79      -0.1210
      2  CA        16.4480   28.3360   11.0190 C.3    79  GLY79       0.1956
      3  C         15.1430   28.1270   11.7730 C.2    79  GLY79       0.2612
      4  O         14.5520   27.0470   11.6940 O.2    79  GLY79      -0.2717
      5  N         14.6810   29.1450   12.4990 N.am   80  ILE80      -0.1965
      6  CA        13.4290   29.0260   13.2460 C.3    80  ILE80       0.1727
      7  C         12.2590   29.0200   12.2650 C.2    80  ILE80       0.2616
      8  O         11.9780   30.0140   11.6360 O.2    80  ILE80      -0.2715
      9  CB        13.2370   30.2050   14.2130 C.3    80  ILE80       0.0290
     10  CG1       14.3640   30.2160   15.2440 C.3    80  ILE80       0.0022
     11  CG2       11.8820   30.0870   14.9060 C.3    80  ILE80       0.0023
     12  CD1       14.3880   31.4650   16.0840 C.3    80  ILE80       0.0001
     13  N         11.5650   27.9000   12.1440 N.am   81  LEU81      -0.1963
     14  CA        10.4580   27.8070   11.2040 C.3    81  LEU81       0.1728
     15  C          9.1490   28.3070   11.7820 C.2    81  LEU81       0.2616
     16  O          8.3280   28.9040   11.0860 O.2    81  LEU81      -0.2715
     17  CB        10.2840   26.3540   10.7730 C.3    81  LEU81       0.0311
     18  CG        11.5660   25.6580   10.3160 C.3    81  LEU81       0.0022
     19  CD1       11.2420   24.2190    9.9270 C.3    81  LEU81       0.0001
     20  CD2       12.1760   26.4070    9.1480 C.3    81  LEU81       0.0001
     21  N          8.9630   28.0460   13.0660 N.am   82  ALA82      -0.1963
     22  CA         7.7510   28.4180   13.7630 C.3    82  ALA82       0.1728
     23  C          7.9620   28.0410   15.2160 C.2    82  ALA82       0.2616
     24  O          9.0110   27.5200   15.5880 O.2    82  ALA82      -0.2715
     25  CB         6.5730   27.6290   13.1920 C.3    82  ALA82       0.0334
     26  N          6.9620   28.3110   16.0420 N.am   83  HIS83      -0.1959
     27  CA         7.0290   27.9400   17.4410 C.3    83  HIS83       0.1787
     28  C          5.6390   28.0280   18.0180 C.2    83  HIS83       0.2620
     29  O          4.7710   28.7110   17.4740 O.2    83  HIS83      -0.2715
     30  CB         8.0260   28.8180   18.2140 C.3    83  HIS83       0.0785
     31  CG         7.7430   30.2840   18.1530 C.ar   83  HIS83       0.0821
     32  ND1        8.7450   31.2260   18.0520 N.ar   83  HIS83      -0.2267
     33  CD2        6.5830   30.9750   18.2360 C.ar   83  HIS83       0.1154
     34  CE1        8.2140   32.4340   18.0730 C.ar   83  HIS83       0.1986
     35  NE2        6.9040   32.3090   18.1840 N.ar   83  HIS83      -0.2212
     36  N          5.4180   27.2970   19.0980 N.am   84  ALA84      -0.1977
     37  CA         4.1170   27.2820   19.7270 C.3    84  ALA84       0.1597
     38  C          4.2910   27.3440   21.2250 C.2    84  ALA84       0.2287
     39  O          5.3720   27.0780   21.7510 O.2    84  ALA84      -0.2864
     40  CB         3.3660   26.0110   19.3360 C.3    84  ALA84       0.0319
     41  N          2.7750   19.9200    7.4650 N.3   114  LEU114     -0.1231
     42  CA         3.7070   19.2220    8.3440 C.3   114  LEU114      0.1693
     43  C          4.2120   20.0810    9.4920 C.2   114  LEU114      0.2591
     44  O          4.2230   19.6490   10.6470 O.2   114  LEU114     -0.2718
     45  CB         4.8960   18.6820    7.5400 C.3   114  LEU114      0.0284
     46  CG         4.5630   17.5200    6.6010 C.3   114  LEU114      0.0019
     47  CD1        5.8060   17.1340    5.8210 C.3   114  LEU114      0.0001
     48  CD2        4.0370   16.3360    7.4080 C.3   114  LEU114      0.0001
     49  N          4.6360   21.2990    9.1850 N.am  115  VAL115     -0.1980
     50  CA         5.1300   22.1670   10.2350 C.3   115  VAL115      0.1595
     51  C          4.0100   22.4880   11.2160 C.2   115  VAL115      0.2287
     52  O          4.2160   22.4660   12.4320 O.2   115  VAL115     -0.2864
     53  CB         5.7260   23.4610    9.6440 C.3   115  VAL115      0.0276
     54  CG1        6.2350   24.3670   10.7610 C.3   115  VAL115      0.0022
     55  CG2        6.8760   23.1010    8.7130 C.3   115  VAL115      0.0022
     56  N          3.1980   19.5520   13.4630 N.3   118  HIS118     -0.1226
     57  CA         4.2560   19.4530   14.4580 C.3   118  HIS118      0.1752
     58  C          4.0630   20.5170   15.5360 C.2   118  HIS118      0.2595
     59  O          4.0740   20.2150   16.7310 O.2   118  HIS118     -0.2718
     60  CB         5.6030   19.6370   13.7680 C.3   118  HIS118      0.0759
     61  CG         6.7590   19.7230   14.7080 C.ar  118  HIS118      0.0818
     62  ND1        7.5510   18.6380   15.0220 N.ar  118  HIS118     -0.2268
     63  CD2        7.2690   20.7730   15.3910 C.ar  118  HIS118      0.1154
     64  CE1        8.5010   19.0190   15.8550 C.ar  118  HIS118      0.1986
     65  NE2        8.3530   20.3100   16.0940 N.ar  118  HIS118     -0.2212
     66  N          3.8820   21.7660   15.1210 N.am  119  GLU119     -0.1979
     67  CA         3.6930   22.8300   16.0920 C.3   119  GLU119      0.1602
     68  C          2.4740   22.5970   16.9780 C.2   119  GLU119      0.2287
     69  O          2.5110   22.8940   18.1670 O.2   119  GLU119     -0.2864
     70  CB         3.5790   24.1830   15.3900 C.3   119  GLU119      0.0415
     71  CG         4.9020   24.6930   14.8510 C.3   119  GLU119      0.1163
     72  CD         5.9730   24.7460   15.9280 C.2   119  GLU119      0.3649
     73  OE1        5.6700   25.2180   17.0390 O.co2 119  GLU119     -0.2457
     74  OE2        7.1150   24.3210   15.6590 O.co2 119  GLU119     -0.2457
     75  N          3.0740   20.7120   19.9970 N.3   122  HIS122     -0.1241
     76  CA         3.5340   21.5290   21.1120 C.3   122  HIS122      0.1621
     77  C          2.3450   22.2390   21.7350 C.2   122  HIS122      0.2264
     78  O          2.2540   22.3640   22.9550 O.2   122  HIS122     -0.2867
     79  CB         4.5520   22.5680   20.6480 C.3   122  HIS122      0.0745
     80  CG         5.8300   21.9740   20.1590 C.ar  122  HIS122      0.0817
     81  ND1        6.5090   21.0010   20.8610 N.ar  122  HIS122     -0.2268
     82  CD2        6.5660   22.2240   19.0520 C.ar  122  HIS122      0.1154
     83  CE1        7.6090   20.6780   20.2090 C.ar  122  HIS122      0.1986
     84  NE2        7.6670   21.4060   19.1090 N.ar  122  HIS122     -0.2212
     85  N          9.5860   17.1010   22.1270 N.3   128  HIS128     -0.1241
     86  CA        10.2160   16.4760   20.9750 C.3   128  HIS128      0.1621
     87  C         10.4750   14.9910   21.1650 C.2   128  HIS128      0.2264
     88  O         10.6390   14.5100   22.2860 O.2   128  HIS128     -0.2867
     89  CB        11.5220   17.1930   20.6470 C.3   128  HIS128      0.0745
     90  CG        11.3210   18.5380   20.0290 C.ar  128  HIS128      0.0817
     91  ND1       12.0380   19.6500   20.4120 N.ar  128  HIS128     -0.2268
     92  CD2       10.4810   18.9490   19.0500 C.ar  128  HIS128      0.1154
     93  CE1       11.6490   20.6900   19.6970 C.ar  128  HIS128      0.1986
     94  NE2       10.7060   20.2910   18.8630 N.ar  128  HIS128     -0.2212
     95  N         11.4160    9.2990   12.6820 N.3   133  GLY133     -0.1210
     96  CA        10.2270    9.2280   11.8530 C.3   133  GLY133      0.1956
     97  C          9.0060    9.8430   12.5110 C.2   133  GLY133      0.2612
     98  O          7.9330    9.9010   11.9100 O.2   133  GLY133     -0.2717
     99  N          9.1710   10.3070   13.7450 N.am  134  ALA134     -0.1965
    100  CA         8.0740   10.9160   14.4880 C.3   134  ALA134      0.1728
    101  C          7.7950   12.3400   14.0220 C.2   134  ALA134      0.2616
    102  O          8.7100   13.0850   13.6660 O.2   134  ALA134     -0.2715
    103  CB         8.3940   10.9150   15.9790 C.3   134  ALA134      0.0334
    104  N          6.5200   12.7110   14.0220 N.am  135  LEU135     -0.1977
    105  CA         6.1320   14.0530   13.6250 C.3   135  LEU135      0.1596
    106  C          6.7930   15.0570   14.5600 C.2   135  LEU135      0.2287
    107  O          7.1680   16.1520   14.1420 O.2   135  LEU135     -0.2864
    108  CB         4.6110   14.2130   13.6960 C.3   135  LEU135      0.0297
    109  CG         4.0950   15.6440   13.5040 C.3   135  LEU135      0.0022
    110  CD1        4.5200   16.1720   12.1350 C.3   135  LEU135      0.0001
    111  CD2        2.5840   15.6610   13.6460 C.3   135  LEU135      0.0001
    112  N          9.7100   14.9780   15.8160 N.3   137  TYR137     -0.1228
    113  CA        11.1680   14.9630   15.7720 C.3   137  TYR137      0.1721
    114  C         11.5610   16.4450   15.7550 C.2   137  TYR137      0.2437
    115  O         10.8580   17.2660   15.1690 O.2   137  TYR137     -0.2733
    116  CB        11.6700   14.2640   14.5080 C.3   137  TYR137      0.0547
    117  CG        13.1610   14.0130   14.5180 C.ar  137  TYR137     -0.0200
    118  CD1       13.7200   13.0510   15.3610 C.ar  137  TYR137     -0.0009
    119  CD2       14.0180   14.7600   13.7100 C.ar  137  TYR137     -0.0009
    120  CE1       15.0970   12.8400   15.4010 C.ar  137  TYR137      0.0417
    121  CE2       15.3960   14.5590   13.7440 C.ar  137  TYR137      0.0417
    122  CZ        15.9280   13.5990   14.5910 C.ar  137  TYR137      0.1957
    123  OH        17.2900   13.4090   14.6310 O.3   137  TYR137     -0.2866
    124  N         12.6830   16.8080   16.3990 N.am  138  PRO138     -0.2718
    125  CA        13.1760   18.1910   16.4810 C.3   138  PRO138      0.1535
    126  C         13.5630   18.9090   15.1920 C.2   138  PRO138      0.2599
    127  O         13.5990   20.1370   15.1550 O.2   138  PRO138     -0.2715
    128  CB        14.3670   18.0790   17.4340 C.3   138  PRO138      0.0310
    129  CG        14.0500   16.8770   18.2490 C.3   138  PRO138      0.0237
    130  CD        13.5230   15.9210   17.2170 C.3   138  PRO138      0.0939
    131  N         13.8830   18.1600   14.1460 N.am  139  ASN139     -0.1959
    132  CA        14.2580   18.7890   12.8900 C.3   139  ASN139      0.1819
    133  C         13.3380   18.3780   11.7630 C.2   139  ASN139      0.2621
    134  O         12.9420   17.2200   11.6460 O.2   139  ASN139     -0.2715
    135  CB        15.7170   18.4820   12.5530 C.3   139  ASN139      0.1195
    136  CG        16.6730   19.4660   13.2020 C.2   139  ASN139      0.2630
    137  OD1       17.7210   19.0860   13.7220 O.2   139  ASN139     -0.2716
    138  ND2       16.3130   20.7470   13.1670 N.am  139  ASN139     -0.0877
    139  N         12.9970   19.3560   10.9370 N.am  140  TYR140     -0.1960
    140  CA        12.0890   19.1440    9.8270 C.3   140  TYR140      0.1771
    141  C         12.5950   18.2000    8.7530 C.2   140  TYR140      0.2619
    142  O         13.7510   18.2570    8.3420 O.2   140  TYR140     -0.2715
    143  CB        11.7300   20.4900    9.2020 C.3   140  TYR140      0.0574
    144  CG        10.8750   20.3830    7.9640 C.ar  140  TYR140     -0.0198
    145  CD1       11.4460   20.1570    6.7120 C.ar  140  TYR140     -0.0009
    146  CD2        9.4940   20.5040    8.0460 C.ar  140  TYR140     -0.0009
    147  CE1       10.6570   20.0560    5.5700 C.ar  140  TYR140      0.0417
    148  CE2        8.6970   20.4050    6.9150 C.ar  140  TYR140      0.0417
    149  CZ         9.2840   20.1840    5.6830 C.ar  140  TYR140      0.1957
    150  OH         8.4860   20.1120    4.5660 O.3   140  TYR140     -0.2866
    151  N         11.6970   17.3350    8.3000 N.am  141  ALA141     -0.1977
    152  CA        11.9900   16.3830    7.2460 C.3   141  ALA141      0.1597
    153  C         10.6710   16.1360    6.5420 C.2   141  ALA141      0.2287
    154  O          9.6700   15.8370    7.1940 O.2   141  ALA141     -0.2864
    155  CB        12.5220   15.0800    7.8320 C.3   141  ALA141      0.0319
    156  N          7.7670   14.3310    4.5390 N.3   143  ARG143     -0.1245
    157  CA         7.2100   12.9860    4.5310 C.3   143  ARG143      0.1563
    158  C          6.0020   13.1290    3.6150 C.2   143  ARG143      0.2260
    159  O          5.3800   14.1910    3.5900 O.2   143  ARG143     -0.2867
    160  CB         6.7480   12.5770    5.9350 C.3   143  ARG143      0.0307
    161  CG         7.8250   12.6410    7.0070 C.3   143  ARG143      0.0489
    162  CD         8.9260   11.6200    6.7710 C.3   143  ARG143      0.2205
    163  NE         9.8880   11.6050    7.8700 N.pl3 143  ARG143     -0.0865
    164  CZ        10.9480   10.8060    7.9300 C.cat 143  ARG143      0.5346
    165  NH1       11.1950    9.9460    6.9500 N.pl3 143  ARG143      0.1354
    166  NH2       11.7620   10.8620    8.9760 N.pl3 143  ARG143      0.1354
    167  N         -1.0570   11.3130    4.8750 N.3   148  TYR148     -0.1241
    168  CA        -0.3160   11.3680    6.1230 C.3   148  TYR148      0.1605
    169  C         -1.2000   11.1760    7.3420 C.2   148  TYR148      0.2264
    170  O         -2.2400   11.8180    7.4760 O.2   148  TYR148     -0.2867
    171  CB         0.4030   12.7150    6.2440 C.3   148  TYR148      0.0534
    172  CG         1.4180   12.7830    7.3640 C.ar  148  TYR148     -0.0201
    173  CD1        2.7370   12.3860    7.1570 C.ar  148  TYR148     -0.0009
    174  CD2        1.0560   13.2280    8.6310 C.ar  148  TYR148     -0.0009
    175  CE1        3.6740   12.4320    8.1860 C.ar  148  TYR148      0.0417
    176  CE2        1.9840   13.2750    9.6690 C.ar  148  TYR148      0.0417
    177  CZ         3.2910   12.8760    9.4390 C.ar  148  TYR148      0.1957
    178  OH         4.2190   12.9190   10.4540 O.3   148  TYR148     -0.2866
@<TRIPOS>BOND
     1   159   158    2
     2   158   157    1
     3   157   156    1
     4   157   160    1
     5   150   149    1
     6   167   168    1
     7   147   149   ar
     8   147   145   ar
     9   149   148   ar
    10    47    46    1
    11   160   161    1
    12   168   171    1
    13   168   169    1
    14   171   172    1
    15   153   154    2
    16   153   152    1
    17    46    48    1
    18    46    45    1
    19   145   144   ar
    20   162   161    1
    21   162   163    1
    22   148   146   ar
    23   165   164    1
    24   173   172   ar
    25   173   175   ar
    26   152   155    1
    27   152   151    1
    28   169   170    2
    29   172   174   ar
    30    41    42    1
    31    45    42    1
    32   163   164    2
    33   164   166    1
    34   144   146   ar
    35   144   143    1
    36   175   177   ar
    37   151   141   am
    38   142   141    2
    39    42    43    1
    40   174   176   ar
    41    55    53    1
    42   141   140    1
    43    20    18    1
    44    49    43   am
    45    49    50    1
    46   143   140    1
    47   177   176   ar
    48   177   178    1
    49    43    44    2
    50     1     2    1
    51    53    50    1
    52    53    54    1
    53   140   139    1
    54    19    18    1
    55    50    51    1
    56    18    17    1
    57    17    14    1
    58   139   133   am
    59     2     3    1
    60    16    15    2
    61    14    15    1
    62    14    13    1
    63    51    52    2
    64     8     7    2
    65   134   133    2
    66     4     3    2
    67   133   132    1
    68     3     5   am
    69    15    21   am
    70    96    97    1
    71    96    95    1
    72    98    97    2
    73   110   109    1
    74    13     7   am
    75     7     6    1
    76     5     6    1
    77    97    99   am
    78   135   132    1
    79   135   136    1
    80   132   131    1
    81    21    22    1
    82   138   136   am
    83    25    22    1
    84   136   137    2
    85     6     9    1
    86    56    57    1
    87   109   111    1
    88   109   108    1
    89   105   108    1
    90   105   104    1
    91   105   106    1
    92   102   101    2
    93   119   121   ar
    94   119   117   ar
    95   121   122   ar
    96    99   100    1
    97    22    23    1
    98    60    57    1
    99    60    61    1
   100   104   101   am
   101   101   100    1
   102   107   106    2
   103   131   126   am
   104     9    11    1
   105     9    10    1
   106    57    58    1
   107   100   103    1
   108   116   117    1
   109   116   113    1
   110   117   118   ar
   111   122   123    1
   112   122   120   ar
   113    61    62   ar
   114    61    63   ar
   115    71    70    1
   116    71    72    1
   117    62    64   ar
   118    66    58   am
   119    66    67    1
   120   127   126    2
   121   115   114    2
   122   126   125    1
   123    23    24    2
   124    23    26   am
   125    10    12    1
   126   118   120   ar
   127    70    67    1
   128    63    65   ar
   129    58    59    2
   130    74    72   ar
   131   114   113    1
   132   114   124   am
   133   113   112    1
   134    64    65   ar
   135    72    73   ar
   136    26    27    1
   137    67    68    1
   138   124   125    1
   139   124   130    1
   140   125   128    1
   141    68    69    2
   142   130   129    1
   143   128   129    1
   144    27    28    1
   145    27    30    1
   146    29    28    2
   147    28    36   am
   148    32    34   ar
   149    32    31   ar
   150    34    35   ar
   151    31    30    1
   152    31    33   ar
   153    35    33   ar
   154    94    92   ar
   155    94    93   ar
   156    92    90   ar
   157    82    84   ar
   158    82    80   ar
   159    36    37    1
   160    84    83   ar
   161    40    37    1
   162    93    91   ar
   163    37    38    1
   164    75    76    1
   165    90    91   ar
   166    90    89    1
   167    80    79    1
   168    80    81   ar
   169    83    81   ar
   170    89    86    1
   171    79    76    1
   172    86    87    1
   173    86    85    1
   174    76    77    1
   175    87    88    2
   176    38    39    2
   177    77    78    2
