@<TRIPOS>MOLECULE
tmp/1zs2A01.pdb
 96 92 0 0 0
SMALL
GASTEIGER

@<TRIPOS>ATOM
      1  N         82.3830    0.6390    5.5230 N.3   557  VAL557     -0.1231
      2  CA        81.8650   -0.1960    4.4540 C.3   557  VAL557      0.1692
      3  C         80.8430   -1.0760    5.1600 C.2   557  VAL557      0.2593
      4  O         81.1640   -1.7050    6.1680 O.2   557  VAL557     -0.2718
      5  CB        82.9670   -1.0910    3.8390 C.3   557  VAL557      0.0266
      6  CG1       82.3510   -2.0560    2.8330 C.3   557  VAL557      0.0020
      7  CG2       84.0280   -0.2250    3.1580 C.3   557  VAL557      0.0020
      8  N         79.6110   -1.1090    4.6630 N.am  558  THR558     -0.1939
      9  CA        78.5980   -1.9340    5.3040 C.3   558  THR558      0.2028
     10  C         78.8150   -3.4090    4.9760 C.2   558  THR558      0.2642
     11  O         79.3990   -3.7520    3.9500 O.2   558  THR558     -0.2714
     12  CB        77.1620   -1.5150    4.8850 C.3   558  THR558      0.1808
     13  OG1       77.0040   -1.6440    3.4670 O.3   558  THR558     -0.2208
     14  CG2       76.8950   -0.0770    5.2950 C.3   558  THR558      0.0379
     15  N         78.3490   -4.2770    5.8640 N.am  559  PHE559     -0.1959
     16  CA        78.4800   -5.7170    5.6860 C.3   559  PHE559      0.1771
     17  C         77.0660   -6.2860    5.6590 C.2   559  PHE559      0.2619
     18  O         76.2780   -6.0520    6.5780 O.2   559  PHE559     -0.2715
     19  CB        79.2630   -6.3100    6.8600 C.3   559  PHE559      0.0574
     20  CG        79.4400   -7.8080    6.7940 C.ar  559  PHE559     -0.0200
     21  CD1       80.5370   -8.3680    6.1420 C.ar  559  PHE559     -0.0042
     22  CD2       78.5250   -8.6580    7.4180 C.ar  559  PHE559     -0.0042
     23  CE1       80.7260   -9.7490    6.1160 C.ar  559  PHE559     -0.0003
     24  CE2       78.7050  -10.0490    7.3980 C.ar  559  PHE559     -0.0003
     25  CZ        79.8080  -10.5920    6.7470 C.ar  559  PHE559     -0.0000
     26  N         76.7380   -7.0180    4.6000 N.am  560  ASN560     -0.1972
     27  CA        75.4140   -7.6090    4.4840 C.3   560  ASN560      0.1688
     28  C         75.3460   -8.7930    5.4350 C.2   560  ASN560      0.2292
     29  O         76.0070   -9.8070    5.2290 O.2   560  ASN560     -0.2864
     30  CB        75.1610   -8.0490    3.0410 C.3   560  ASN560      0.1181
     31  CG        75.1360   -6.8750    2.0720 C.2   560  ASN560      0.2629
     32  OD1       74.3560   -5.9340    2.2370 O.2   560  ASN560     -0.2716
     33  ND2       75.9910   -6.9250    1.0530 N.am  560  ASN560     -0.0877
     34  N         72.6350  -10.5490    6.0950 N.3   562  ASN562     -0.1240
     35  CA        71.6160  -11.4830    5.6260 C.3   562  ASN562      0.1653
     36  C         70.5630  -11.7820    6.6900 C.2   562  ASN562      0.2266
     37  O         69.8520  -12.7870    6.6260 O.2   562  ASN562     -0.2867
     38  CB        72.2450  -12.7750    5.1040 C.3   562  ASN562      0.1155
     39  CG        72.9040  -12.5800    3.7570 C.2   562  ASN562      0.2627
     40  OD1       72.3640  -11.8880    2.8900 O.2   562  ASN562     -0.2716
     41  ND2       74.0750  -13.1840    3.5700 N.am  562  ASN562     -0.0877
     42  N         82.0110   -2.3600    8.5580 N.3   570  ILE570     -0.1245
     43  CA        83.4170   -2.5530    8.8810 C.3   570  ILE570      0.1561
     44  C         84.1910   -1.2420    8.8810 C.2   570  ILE570      0.2260
     45  O         84.0670   -0.4330    7.9610 O.2   570  ILE570     -0.2867
     46  CB        84.0840   -3.5310    7.8740 C.3   570  ILE570      0.0252
     47  CG1       83.3370   -4.8680    7.8780 C.3   570  ILE570      0.0019
     48  CG2       85.5520   -3.7470    8.2420 C.3   570  ILE570      0.0019
     49  CD1       83.8620   -5.8870    6.8690 C.3   570  ILE570      0.0001
     50  N         88.6500   -1.8370    7.6070 N.3   573  ASN573     -0.1240
     51  CA        88.8960   -3.2350    7.2510 C.3   573  ASN573      0.1653
     52  C         89.5150   -4.0210    8.3950 C.2   573  ASN573      0.2266
     53  O         90.2570   -4.9720    8.1590 O.2   573  ASN573     -0.2867
     54  CB        89.8290   -3.3220    6.0410 C.3   573  ASN573      0.1155
     55  CG        89.1210   -3.7940    4.7900 C.2   573  ASN573      0.2627
     56  OD1       88.5790   -4.9030    4.7430 O.2   573  ASN573     -0.2716
     57  ND2       89.1200   -2.9500    3.7610 N.am  573  ASN573     -0.0877
     58  N         77.5890  -19.3790    6.9650 N.3   591  HIS591     -0.1226
     59  CA        77.7000  -19.2160    5.5250 C.3   591  HIS591      0.1752
     60  C         78.0030  -17.7630    5.1760 C.2   591  HIS591      0.2596
     61  O         78.8280  -17.4760    4.3110 O.2   591  HIS591     -0.2718
     62  CB        76.4070  -19.6570    4.8350 C.3   591  HIS591      0.0759
     63  CG        76.4940  -19.6480    3.3420 C.ar  591  HIS591      0.0818
     64  ND1       76.4230  -18.4900    2.5980 N.ar  591  HIS591     -0.2268
     65  CD2       76.6880  -20.6540    2.4550 C.ar  591  HIS591      0.1154
     66  CE1       76.5680  -18.7810    1.3180 C.ar  591  HIS591      0.1986
     67  NE2       76.7300  -20.0880    1.2040 N.ar  591  HIS591     -0.2212
     68  N         77.3260  -16.8500    5.8580 N.am  592  THR592     -0.1953
     69  CA        77.5170  -15.4260    5.6290 C.3   592  THR592      0.1897
     70  C         78.9120  -14.9740    6.0640 C.2   592  THR592      0.2313
     71  O         79.4880  -14.0630    5.4740 O.2   592  THR592     -0.2863
     72  CB        76.4570  -14.6020    6.4050 C.3   592  THR592      0.1794
     73  OG1       75.1490  -14.9320    5.9220 O.3   592  THR592     -0.2208
     74  CG2       76.6940  -13.1090    6.2300 C.3   592  THR592      0.0378
     75  N         81.7860  -16.7780    5.9940 N.3   594  GLN594     -0.1231
     76  CA        82.8770  -17.5600    5.4000 C.3   594  GLN594      0.1698
     77  C         84.1630  -16.8140    5.0310 C.2   594  GLN594      0.2592
     78  O         85.2510  -17.3800    5.1110 O.2   594  GLN594     -0.2718
     79  CB        82.3850  -18.2900    4.1500 C.3   594  GLN594      0.0381
     80  CG        81.2780  -19.2900    4.3920 C.3   594  GLN594      0.0905
     81  CD        80.7760  -19.8990    3.0960 C.2   594  GLN594      0.2608
     82  OE1       81.4010  -20.8040    2.5360 O.2   594  GLN594     -0.2717
     83  NE2       79.6510  -19.3910    2.6000 N.am  594  GLN594     -0.0878
     84  N         84.0470  -15.5600    4.6130 N.am  595  ALA595     -0.1966
     85  CA        85.2250  -14.7970    4.2170 C.3   595  ALA595      0.1728
     86  C         85.9370  -14.1300    5.3890 C.2   595  ALA595      0.2616
     87  O         86.9740  -13.4990    5.2080 O.2   595  ALA595     -0.2715
     88  CB        84.8390  -13.7500    3.1790 C.3   595  ALA595      0.0334
     89  N         85.3800  -14.2820    6.5850 N.am  596  MET596     -0.1977
     90  CA        85.9490  -13.6910    7.7910 C.3   596  MET596      0.1605
     91  C         86.9320  -14.6300    8.4840 C.2   596  MET596      0.2287
     92  O         86.9340  -15.8350    8.2370 O.2   596  MET596     -0.2864
     93  CB        84.8300  -13.3340    8.7740 C.3   596  MET596      0.0413
     94  CG        83.9210  -12.2160    8.3090 C.3   596  MET596      0.0598
     95  SD        84.8060  -10.6640    8.1300 S.3   596  MET596     -0.1393
     96  CE        84.6910  -10.3870    6.3880 C.3   596  MET596      0.0692
@<TRIPOS>BOND
     1    33    31   am
     2    67    66   ar
     3    67    65   ar
     4    66    64   ar
     5    31    32    2
     6    31    30    1
     7    65    63   ar
     8    82    81    2
     9    64    63   ar
    10    83    81   am
    11     6     5    1
    12    40    39    2
    13    30    27    1
    14    81    80    1
    15     7     5    1
    16    88    85    1
    17    63    62    1
    18    13    12    1
    19    41    39   am
    20    39    38    1
    21    57    55   am
    22     5     2    1
    23    11    10    2
    24    79    80    1
    25    79    76    1
    26    85    84    1
    27    85    86    1
    28    61    60    2
    29     2     3    1
    30     2     1    1
    31    27    26    1
    32    27    28    1
    33    26    17   am
    34    84    77   am
    35     8     3   am
    36     8     9    1
    37    56    55    2
    38    55    54    1
    39    62    59    1
    40    12    14    1
    41    12     9    1
    42    10     9    1
    43    10    15   am
    44    77    78    2
    45    77    76    1
    46    38    35    1
    47     3     4    2
    48    60    59    1
    49    60    68   am
    50    87    86    2
    51    29    28    2
    52    86    89   am
    53    76    75    1
    54    71    70    2
    55    59    58    1
    56    35    34    1
    57    35    36    1
    58    69    68    1
    59    69    70    1
    60    69    72    1
    61    17    16    1
    62    17    18    2
    63    16    15    1
    64    16    19    1
    65    73    72    1
    66    54    51    1
    67    23    21   ar
    68    23    25   ar
    69    21    20   ar
    70    74    72    1
    71    96    95    1
    72    89    90    1
    73    37    36    2
    74    25    24   ar
    75    20    19    1
    76    20    22   ar
    77    49    47    1
    78    51    50    1
    79    51    52    1
    80    24    22   ar
    81    90    91    1
    82    90    93    1
    83    46    47    1
    84    46    48    1
    85    46    43    1
    86    45    44    2
    87    95    94    1
    88    53    52    2
    89    92    91    2
    90    94    93    1
    91    42    43    1
    92    43    44    1
