@<TRIPOS>MOLECULE
tmp/1zs5A00.pdb
 168 167 0 0 0
SMALL
GASTEIGER

@<TRIPOS>ATOM
      1  N          7.8640    6.1360   -4.6700 N.3    32  TRP32      -0.1228
      2  CA         9.1150    5.5040   -5.1830 C.3    32  TRP32       0.1722
      3  C          9.7200    4.4750   -4.1990 C.2    32  TRP32       0.2437
      4  O         10.3910    3.5660   -4.6450 O.2    32  TRP32      -0.2733
      5  CB        10.1020    6.6500   -5.4600 C.3    32  TRP32       0.0563
      6  CG        10.2730    7.5180   -4.2560 C.ar   32  TRP32       0.0003
      7  CD1        9.7380    8.7510   -4.1120 C.ar   32  TRP32       0.0946
      8  CD2       11.0600    7.2710   -3.0550 C.ar   32  TRP32       0.0152
      9  NE1       10.1230    9.2670   -2.8880 N.ar   32  TRP32      -0.2442
     10  CE2       10.9350    8.3900   -2.1970 C.ar   32  TRP32       0.0810
     11  CE3       11.8380    6.1850   -2.6180 C.ar   32  TRP32       0.0012
     12  CZ2       11.5690    8.4350   -0.9560 C.ar   32  TRP32       0.0191
     13  CZ3       12.4790    6.2270   -1.3690 C.ar   32  TRP32       0.0001
     14  CH2       12.3430    7.3500   -0.5390 C.ar   32  TRP32       0.0015
     15  N          9.4820    4.5980   -2.9030 N.am   33  PRO33      -0.2718
     16  CA        10.0440    3.5950   -1.9680 C.3    33  PRO33       0.1535
     17  C          9.2930    2.2610   -2.0970 C.2    33  PRO33       0.2598
     18  O          9.6570    1.2770   -1.4840 O.2    33  PRO33      -0.2715
     19  CB         9.8220    4.2030   -0.5760 C.3    33  PRO33       0.0310
     20  CG         9.3090    5.5910   -0.8100 C.3    33  PRO33       0.0237
     21  CD         8.6940    5.6030   -2.1780 C.3    33  PRO33       0.0939
     22  N          8.2520    2.2140   -2.8930 N.am   34  PHE34      -0.1974
     23  CA         7.4840    0.9390   -3.0430 C.3    34  PHE34       0.1639
     24  C          7.2760    0.6300   -4.5290 C.2    34  PHE34       0.2290
     25  O          7.3290   -0.5070   -4.9530 O.2    34  PHE34      -0.2864
     26  CB         6.1120    1.1700   -2.3700 C.3    34  PHE34       0.0560
     27  CG         6.2390    2.0510   -1.1430 C.ar   34  PHE34      -0.0200
     28  CD1        7.0330    1.6470   -0.0640 C.ar   34  PHE34      -0.0042
     29  CD2        5.5680    3.2790   -1.0990 C.ar   34  PHE34      -0.0042
     30  CE1        7.1500    2.4700    1.0630 C.ar   34  PHE34      -0.0003
     31  CE2        5.6850    4.1000    0.0260 C.ar   34  PHE34      -0.0003
     32  CZ         6.4760    3.6970    1.1070 C.ar   34  PHE34      -0.0000
     33  N         13.2680   -3.0150   -4.5760 N.3    38  VAL38      -0.1231
     34  CA        14.4180   -2.5920   -3.7310 C.3    38  VAL38       0.1692
     35  C         15.4930   -3.6810   -3.7130 C.2    38  VAL38       0.2592
     36  O         15.2140   -4.8450   -3.9180 O.2    38  VAL38      -0.2718
     37  CB        13.8240   -2.4040   -2.3340 C.3    38  VAL38       0.0266
     38  CG1       12.7790   -1.2860   -2.3700 C.3    38  VAL38       0.0020
     39  CG2       13.1610   -3.7070   -1.8810 C.3    38  VAL38       0.0020
     40  N         16.7210   -3.3100   -3.4740 N.am   39  LYS39      -0.1966
     41  CA        17.8130   -4.3240   -3.4430 C.3    39  LYS39       0.1728
     42  C         17.6040   -5.2950   -2.2800 C.2    39  LYS39       0.2616
     43  O         16.4960   -5.5130   -1.8320 O.2    39  LYS39      -0.2715
     44  CB        19.0940   -3.5130   -3.2350 C.3    39  LYS39       0.0311
     45  CG        20.2480   -4.1760   -3.9910 C.3    39  LYS39       0.0038
     46  CD        21.4630   -4.3000   -3.0690 C.3    39  LYS39       0.0206
     47  CE        22.6040   -3.4360   -3.6110 C.3    39  LYS39       0.1093
     48  NZ        23.3330   -2.9610   -2.4010 N.3    39  LYS39      -0.1314
     49  N         18.6600   -5.8820   -1.7900 N.am   40  ARG40      -0.1977
     50  CA        18.5250   -6.8300   -0.6490 C.3    40  ARG40       0.1597
     51  C         19.0960   -6.2050    0.6230 C.2    40  ARG40       0.2287
     52  O         18.5660   -6.3740    1.7040 O.2    40  ARG40      -0.2864
     53  CB        19.3460   -8.0550   -1.0560 C.3    40  ARG40       0.0334
     54  CG        18.4390   -9.2870   -1.0940 C.3    40  ARG40       0.0492
     55  CD        19.0420  -10.3370   -2.0300 C.3    40  ARG40       0.2205
     56  NE        18.3890  -11.6210   -1.6360 N.pl3  40  ARG40      -0.0865
     57  CZ        18.5850  -12.7180   -2.3310 C.cat  40  ARG40       0.5346
     58  NH1       19.3580  -12.7190   -3.3890 N.pl3  40  ARG40       0.1354
     59  NH2       18.0000  -13.8250   -1.9620 N.pl3  40  ARG40       0.1354
     60  N         20.0740   -2.7840    0.5990 N.3    42  GLU42      -0.1231
     61  CA        20.1070   -1.3150    0.3700 C.3    42  GLU42       0.1699
     62  C         19.3130   -0.5880    1.4570 C.2    42  GLU42       0.2592
     63  O         19.4850    0.5940    1.6790 O.2    42  GLU42      -0.2718
     64  CB        19.4500   -1.1140   -0.9980 C.3    42  GLU42       0.0402
     65  CG        19.4340    0.3770   -1.3430 C.3    42  GLU42       0.1161
     66  CD        20.8710    0.8970   -1.4270 C.2    42  GLU42       0.3649
     67  OE1       21.4100    1.2590   -0.3940 O.co2  42  GLU42      -0.2457
     68  OE2       21.4070    0.9260   -2.5220 O.co2  42  GLU42      -0.2457
     69  N         18.4450   -1.2840    2.1420 N.am   43  ALA43      -0.1966
     70  CA        17.6480   -0.6290    3.2160 C.3    43  ALA43       0.1713
     71  C         18.3970   -0.7090    4.5550 C.2    43  ALA43       0.2458
     72  O         18.8120   -1.7760    4.9610 O.2    43  ALA43      -0.2730
     73  CB        16.3500   -1.4350    3.2880 C.3    43  ALA43       0.0333
     74  N         18.5470    0.4210    5.2060 N.am   44  PRO44      -0.2727
     75  CA        19.2620    0.4500    6.5080 C.3    44  PRO44       0.1402
     76  C         18.5170   -0.3830    7.5540 C.2    44  PRO44       0.2269
     77  O         17.7650    0.1370    8.3540 O.2    44  PRO44      -0.2865
     78  CB        19.2530    1.9310    6.9000 C.3    44  PRO44       0.0296
     79  CG        18.1750    2.5520    6.0700 C.3    44  PRO44       0.0237
     80  CD        18.0890    1.7570    4.8040 C.3    44  PRO44       0.0939
     81  N         17.1360   -4.2520    7.1210 N.3    46  TYR46      -0.1241
     82  CA        16.0340   -4.9960    6.4520 C.3    46  TYR46       0.1605
     83  C         16.1910   -6.4990    6.7040 C.2    46  TYR46       0.2264
     84  O         17.1940   -6.9450    7.2250 O.2    46  TYR46      -0.2867
     85  CB        16.2030   -4.6630    4.9660 C.3    46  TYR46       0.0534
     86  CG        15.2790   -5.5220    4.1330 C.ar   46  TYR46      -0.0201
     87  CD1       13.9610   -5.1110    3.9010 C.ar   46  TYR46      -0.0009
     88  CD2       15.7410   -6.7290    3.5970 C.ar   46  TYR46      -0.0009
     89  CE1       13.1050   -5.9080    3.1300 C.ar   46  TYR46       0.0417
     90  CE2       14.8860   -7.5260    2.8260 C.ar   46  TYR46       0.0417
     91  CZ        13.5680   -7.1150    2.5930 C.ar   46  TYR46       0.1957
     92  OH        12.7250   -7.9000    1.8330 O.3    46  TYR46      -0.2866
     93  N         11.6490   -6.7740    9.0720 N.3    50  ILE50      -0.1245
     94  CA        10.3860   -6.8190    8.2860 C.3    50  ILE50       0.1561
     95  C          9.9140   -8.2700    8.1480 C.2    50  ILE50       0.2260
     96  O         10.4000   -9.0160    7.3210 O.2    50  ILE50      -0.2867
     97  CB        10.7570   -6.2260    6.9210 C.3    50  ILE50       0.0252
     98  CG1       11.0180   -4.7240    7.0700 C.3    50  ILE50       0.0019
     99  CG2        9.6080   -6.4390    5.9310 C.3    50  ILE50       0.0019
    100  CD1        9.7440   -4.0240    7.5520 C.3    50  ILE50       0.0001
    101  N          8.3670   -8.5350    3.9580 N.3    53  PRO53      -0.2102
    102  CA         8.7470   -7.4400    3.0320 C.3    53  PRO53       0.1504
    103  C          7.6960   -7.2810    1.9320 C.2    53  PRO53       0.2576
    104  O          7.2290   -8.2490    1.3660 O.2    53  PRO53      -0.2718
    105  CB        10.0750   -7.9060    2.4460 C.3    53  PRO53       0.0282
    106  CG        10.6300   -8.8500    3.4610 C.3    53  PRO53       0.0208
    107  CD         9.4580   -9.5010    4.1440 C.3    53  PRO53       0.0893
    108  N          7.3140   -6.0720    1.6280 N.am   54  MET54      -0.1966
    109  CA         6.2830   -5.8660    0.5730 C.3    54  MET54       0.1736
    110  C          6.4940   -4.5280   -0.1350 C.2    54  MET54       0.2616
    111  O          7.0490   -3.6000    0.4190 O.2    54  MET54      -0.2715
    112  CB         4.9520   -5.8630    1.3260 C.3    54  MET54       0.0427
    113  CG         3.7970   -5.8730    0.3230 C.3    54  MET54       0.0599
    114  SD         2.5120   -7.0110    0.8960 S.3    54  MET54      -0.1393
    115  CE         3.2990   -8.5420    0.3370 C.3    54  MET54       0.0692
    116  N          6.0510   -4.4220   -1.3580 N.am   55  ASP55      -0.1971
    117  CA         6.2150   -3.1430   -2.1060 C.3    55  ASP55       0.1709
    118  C          5.0990   -2.9900   -3.1410 C.2    55  ASP55       0.2293
    119  O          4.3500   -3.9110   -3.4020 O.2    55  ASP55      -0.2864
    120  CB         7.5730   -3.2620   -2.7990 C.3    55  ASP55       0.1436
    121  CG         8.6700   -3.4350   -1.7460 C.2    55  ASP55       0.3671
    122  OD1        8.9570   -4.5680   -1.3980 O.co2  55  ASP55      -0.2456
    123  OD2        9.2020   -2.4300   -1.3040 O.co2  55  ASP55      -0.2456
    124  N          3.1100   -1.8420    3.3440 N.3    81  VAL81      -0.1245
    125  CA         4.1170   -1.0130    2.6270 C.3    81  VAL81       0.1561
    126  C          4.4280    0.2440    3.4380 C.2    81  VAL81       0.2260
    127  O          5.5630    0.5040    3.7940 O.2    81  VAL81      -0.2867
    128  CB         3.4500   -0.6330    1.3020 C.3    81  VAL81       0.0252
    129  CG1        4.4220    0.1990    0.4640 C.3    81  VAL81       0.0019
    130  CG2        3.0680   -1.8980    0.5320 C.3    81  VAL81       0.0019
    131  N          6.1290   -0.8020    6.6590 N.3    84  ASN84      -0.1225
    132  CA         7.4660   -1.4170    6.3960 C.3    84  ASN84       0.1785
    133  C          8.5390   -0.3330    6.2740 C.2    84  ASN84       0.2597
    134  O          9.6020   -0.4250    6.8630 O.2    84  ASN84      -0.2718
    135  CB         7.3140   -2.1600    5.0670 C.3    84  ASN84       0.1169
    136  CG         6.9220   -3.6170    5.3310 C.2    84  ASN84       0.2627
    137  OD1        7.2540   -4.4950    4.5590 O.2    84  ASN84      -0.2716
    138  ND2        6.2250   -3.9150    6.3940 N.am   84  ASN84      -0.0877
    139  N          8.2810    0.6820    5.4940 N.am   85  CYS85      -0.1970
    140  CA         9.2740    1.7830    5.3720 C.3    85  CYS85       0.1712
    141  C          9.4360    2.4290    6.7380 C.2    85  CYS85       0.2296
    142  O         10.5060    2.4560    7.3110 O.2    85  CYS85      -0.2864
    143  CB         8.6610    2.7680    4.3750 C.3    85  CYS85       0.0983
    144  SG         9.9160    3.2660    3.1690 S.3    85  CYS85      -0.0798
    145  N         11.8550    0.0370    9.1130 N.3    88  TYR88      -0.1241
    146  CA        13.3490    0.0310    9.0920 C.3    88  TYR88       0.1605
    147  C         13.9120    1.4400    8.8990 C.2    88  TYR88       0.2264
    148  O         15.0860    1.6760    9.1040 O.2    88  TYR88      -0.2867
    149  CB        13.7440   -0.8770    7.9210 C.3    88  TYR88       0.0534
    150  CG        13.2510   -0.3060    6.6120 C.ar   88  TYR88      -0.0201
    151  CD1       13.8770    0.8150    6.0540 C.ar   88  TYR88      -0.0009
    152  CD2       12.2060   -0.9370    5.9260 C.ar   88  TYR88      -0.0009
    153  CE1       13.4320    1.3290    4.8300 C.ar   88  TYR88       0.0417
    154  CE2       11.7640   -0.4280    4.7000 C.ar   88  TYR88       0.0417
    155  CZ        12.3760    0.7060    4.1500 C.ar   88  TYR88       0.1957
    156  OH        11.9320    1.2100    2.9410 O.3    88  TYR88      -0.2866
    157  N         12.3940    8.4900    3.0690 N.3    95  TYR95      -0.1241
    158  CA        11.5740    7.2540    2.9200 C.3    95  TYR95       0.1605
    159  C         10.3110    7.3620    3.7760 C.2    95  TYR95       0.2264
    160  O          9.2150    7.1000    3.3220 O.2    95  TYR95      -0.2867
    161  CB        12.4670    6.1180    3.4300 C.3    95  TYR95       0.0534
    162  CG        13.7180    6.0260    2.5860 C.ar   95  TYR95      -0.0201
    163  CD1       13.6960    5.3230    1.3760 C.ar   95  TYR95      -0.0009
    164  CD2       14.9070    6.6210    3.0280 C.ar   95  TYR95      -0.0009
    165  CE1       14.8570    5.2330    0.5970 C.ar   95  TYR95       0.0417
    166  CE2       16.0670    6.5310    2.2490 C.ar   95  TYR95       0.0417
    167  CZ        16.0420    5.8370    1.0340 C.ar   95  TYR95       0.1957
    168  OH        17.1860    5.7460    0.2680 O.3    95  TYR95      -0.2866
@<TRIPOS>BOND
     1     5     2    1
     2     5     6    1
     3     2     1    1
     4     2     3    1
     5    25    24    2
     6     4     3    2
     7    33    34    1
     8    24    23    1
     9     6     7   ar
    10     6     8   ar
    11     3    15   am
    12     7     9   ar
    13    45    44    1
    14    45    46    1
    15    36    35    2
    16    34    35    1
    17    34    37    1
    18    35    40   am
    19    47    46    1
    20    47    48    1
    21    40    41    1
    22    41    44    1
    23    41    42    1
    24   119   118    2
    25    58    57    1
    26   118   117    1
    27     8    11   ar
    28     8    10   ar
    29    23    22    1
    30    23    26    1
    31    15    21    1
    32    15    16    1
    33    22    17   am
    34     9    10   ar
    35   120   117    1
    36   120   121    1
    37    11    13   ar
    38    68    66   ar
    39    26    27    1
    40    38    37    1
    41    37    39    1
    42    57    59    1
    43    57    56    2
    44    42    43    2
    45    42    49   am
    46    10    12   ar
    47    21    20    1
    48   117   116    1
    49    17    16    1
    50    17    18    2
    51    55    56    1
    52    55    54    1
    53    16    19    1
    54    49    50    1
    55   121   122   ar
    56   121   123   ar
    57    66    65    1
    58    66    67   ar
    59    13    14   ar
    60   116   110   am
    61    65    64    1
    62    27    29   ar
    63    27    28   ar
    64    29    31   ar
    65    54    53    1
    66    53    50    1
    67    64    61    1
    68    12    14   ar
    69    20    19    1
    70    50    51    1
    71   110   111    2
    72   110   109    1
    73    28    30   ar
    74    31    32   ar
    75   168   167    1
    76   113   114    1
    77   113   112    1
    78   115   114    1
    79    61    60    1
    80    61    62    1
    81   129   128    1
    82   130   128    1
    83   109   112    1
    84   109   108    1
    85   165   167   ar
    86   165   163   ar
    87    51    52    2
    88   167   166   ar
    89    30    32   ar
    90   128   125    1
    91   104   103    2
    92   163   162   ar
    93    62    63    2
    94    62    69   am
    95   108   103   am
    96    92    91    1
    97   103   102    1
    98    69    70    1
    99   166   164   ar
   100   105   102    1
   101   105   106    1
   102   162   164   ar
   103   162   161    1
   104    91    90   ar
   105    91    89   ar
   106   125   124    1
   107   125   126    1
   108    90    88   ar
   109   158   157    1
   110   158   161    1
   111   158   159    1
   112   156   155    1
   113   102   101    1
   114    89    87   ar
   115   144   143    1
   116    70    73    1
   117    70    71    1
   118   160   159    2
   119   126   127    2
   120   106   107    1
   121    88    86   ar
   122    87    86   ar
   123   101   107    1
   124    86    85    1
   125   155   154   ar
   126   155   153   ar
   127   143   140    1
   128    71    72    2
   129    71    74   am
   130   137   136    2
   131   154   152   ar
   132    80    74    1
   133    80    79    1
   134   153   151   ar
   135    85    82    1
   136   135   136    1
   137   135   132    1
   138    74    75    1
   139   136   138   am
   140   140   139    1
   141   140   141    1
   142   139   133   am
   143   152   150   ar
   144    99    97    1
   145   151   150   ar
   146    79    78    1
   147   133   132    1
   148   133   134    2
   149   132   131    1
   150    82    83    1
   151    82    81    1
   152    75    78    1
   153    75    76    1
   154   150   149    1
   155    83    84    2
   156   141   142    2
   157    97    98    1
   158    97    94    1
   159    98   100    1
   160    96    95    2
   161    76    77    2
   162   149   146    1
   163    95    94    1
   164    94    93    1
   165   147   146    1
   166   147   148    2
   167   146   145    1
