@<TRIPOS>MOLECULE
tmp/1zs6B00.pdb
 169 159 0 0 0
SMALL
GASTEIGER

@<TRIPOS>ATOM
      1  N         37.0700   31.8460   21.2510 N.3    12  LYS12      -0.1245
      2  CA        37.6000   32.4750   22.4670 C.3    12  LYS12       0.1561
      3  C         37.3470   33.9950   22.4540 C.2    12  LYS12       0.2260
      4  O         36.9560   34.5380   21.4080 O.2    12  LYS12      -0.2867
      5  CB        39.0790   32.1070   22.6540 C.3    12  LYS12       0.0271
      6  CG        39.2720   30.6140   22.9300 C.3    12  LYS12       0.0035
      7  CD        40.7440   30.1960   23.0200 C.3    12  LYS12       0.0206
      8  CE        40.8430   28.7480   23.4760 C.3    12  LYS12       0.1093
      9  NZ        42.1650   28.1150   23.1980 N.3    12  LYS12      -0.1314
     10  N         39.2370   23.3890   31.9130 N.3    52  TYR52      -0.1241
     11  CA        40.6770   23.2030   31.7840 C.3    52  TYR52       0.1605
     12  C         41.3240   22.4830   32.9880 C.2    52  TYR52       0.2264
     13  O         42.5220   22.6440   33.2230 O.2    52  TYR52      -0.2867
     14  CB        41.3770   24.5500   31.5420 C.3    52  TYR52       0.0534
     15  CG        41.1680   25.1570   30.1690 C.ar   52  TYR52      -0.0201
     16  CD1       41.5030   24.4550   29.0010 C.ar   52  TYR52      -0.0009
     17  CD2       40.6620   26.4430   30.0340 C.ar   52  TYR52      -0.0009
     18  CE1       41.3200   25.0190   27.7420 C.ar   52  TYR52       0.0417
     19  CE2       40.4800   27.0180   28.7850 C.ar   52  TYR52       0.0417
     20  CZ        40.8080   26.3060   27.6450 C.ar   52  TYR52       0.1957
     21  OH        40.6230   26.8990   26.4130 O.3    52  TYR52      -0.2866
     22  N         44.7730   21.1000   33.2010 N.3    55  LEU55      -0.1245
     23  CA        45.8790   22.0440   33.1080 C.3    55  LEU55       0.1561
     24  C         46.1480   22.7810   34.4300 C.2    55  LEU55       0.2260
     25  O         46.9110   23.7460   34.4610 O.2    55  LEU55      -0.2867
     26  CB        45.6140   23.0450   31.9740 C.3    55  LEU55       0.0270
     27  CG        45.3400   22.5260   30.5550 C.3    55  LEU55       0.0019
     28  CD1       44.9720   23.6810   29.6560 C.3    55  LEU55       0.0001
     29  CD2       46.5120   21.7420   29.9610 C.3    55  LEU55       0.0001
     30  N         49.6550   23.7150   35.5890 N.3    58  ARG58      -0.1245
     31  CA        50.4720   24.4800   34.6430 C.3    58  ARG58       0.1563
     32  C         50.6390   25.9390   35.0740 C.2    58  ARG58       0.2260
     33  O         49.7170   26.5340   35.6310 O.2    58  ARG58      -0.2867
     34  CB        49.8790   24.4070   33.2310 C.3    58  ARG58       0.0307
     35  CG        49.6240   22.9880   32.7250 C.3    58  ARG58       0.0489
     36  CD        50.8760   22.3570   32.1320 C.3    58  ARG58       0.2205
     37  NE        50.4920   21.4260   31.0750 N.pl3  58  ARG58      -0.0865
     38  CZ        50.5440   21.6980   29.7710 C.cat  58  ARG58       0.5346
     39  NH1       51.0070   22.8680   29.3320 N.pl3  58  ARG58       0.1354
     40  NH2       50.1510   20.7800   28.9000 N.pl3  58  ARG58       0.1354
     41  N         50.5610   28.6460   33.4490 N.3    60  PHE60      -0.1241
     42  CA        49.6910   29.6020   32.7440 C.3    60  PHE60       0.1605
     43  C         48.1940   29.4230   33.0490 C.2    60  PHE60       0.2264
     44  O         47.3660   30.1570   32.5150 O.2    60  PHE60      -0.2867
     45  CB        49.9300   29.5480   31.2220 C.3    60  PHE60       0.0534
     46  CG        49.6670   28.1910   30.6110 C.ar   60  PHE60      -0.0203
     47  CD1       48.3790   27.8220   30.2220 C.ar   60  PHE60      -0.0042
     48  CD2       50.7050   27.2800   30.4400 C.ar   60  PHE60      -0.0042
     49  CE1       48.1310   26.5700   29.6740 C.ar   60  PHE60      -0.0003
     50  CE2       50.4670   26.0260   29.8890 C.ar   60  PHE60      -0.0003
     51  CZ        49.1710   25.6710   29.5010 C.ar   60  PHE60      -0.0000
     52  N         46.1690   32.5370   34.3470 N.3    63  ARG63      -0.1231
     53  CA        46.0810   33.4880   33.2230 C.3    63  ARG63       0.1694
     54  C         45.0540   33.0450   32.1850 C.2    63  ARG63       0.2591
     55  O         44.2720   33.8680   31.6950 O.2    63  ARG63      -0.2718
     56  CB        47.4230   33.6040   32.4980 C.3    63  ARG63       0.0321
     57  CG        48.4340   34.5500   33.0780 C.3    63  ARG63       0.0489
     58  CD        49.6710   34.5390   32.1860 C.3    63  ARG63       0.2205
     59  NE        50.6430   33.5260   32.5900 N.pl3  63  ARG63      -0.0865
     60  CZ        51.4080   32.8260   31.7560 C.cat  63  ARG63       0.5346
     61  NH1       51.3120   32.9980   30.4450 N.pl3  63  ARG63       0.1354
     62  NH2       52.2690   31.9370   32.2360 N.pl3  63  ARG63       0.1354
     63  N         45.0900   31.7530   31.8420 N.am   64  LEU64      -0.1980
     64  CA        44.1770   31.1630   30.8580 C.3    64  LEU64       0.1596
     65  C         42.7130   31.2880   31.2850 C.2    64  LEU64       0.2287
     66  O         41.8750   31.7390   30.5050 O.2    64  LEU64      -0.2864
     67  CB        44.5440   29.7010   30.5740 C.3    64  LEU64       0.0297
     68  CG        43.5930   28.8520   29.7200 C.3    64  LEU64       0.0022
     69  CD1       43.3990   29.4070   28.2770 C.3    64  LEU64       0.0001
     70  CD2       44.0400   27.3870   29.7160 C.3    64  LEU64       0.0001
     71  N         41.6840   34.9940   31.2400 N.3    67  TYR67      -0.1241
     72  CA        41.4970   35.4680   29.8610 C.3    67  TYR67       0.1605
     73  C         40.1860   34.9610   29.2530 C.2    67  TYR67       0.2264
     74  O         39.4780   35.7040   28.5870 O.2    67  TYR67      -0.2867
     75  CB        42.7370   35.1530   29.0030 C.3    67  TYR67       0.0534
     76  CG        42.5310   34.6320   27.5790 C.ar   67  TYR67      -0.0201
     77  CD1       42.0680   35.4640   26.5480 C.ar   67  TYR67      -0.0009
     78  CD2       42.8760   33.3150   27.2560 C.ar   67  TYR67      -0.0009
     79  CE1       41.9160   34.9780   25.2400 C.ar   67  TYR67       0.0417
     80  CE2       42.7250   32.8160   25.9590 C.ar   67  TYR67       0.0417
     81  CZ        42.2470   33.6490   24.9520 C.ar   67  TYR67       0.1957
     82  OH        42.1200   33.1370   23.6650 O.3    67  TYR67      -0.2866
     83  N         40.0580   19.7330   14.7420 N.3    88  ARG88      -0.1245
     84  CA        41.4370   20.0350   15.1770 C.3    88  ARG88       0.1563
     85  C         42.3670   20.3320   14.0010 C.2    88  ARG88       0.2260
     86  O         43.1840   21.2410   14.0720 O.2    88  ARG88      -0.2867
     87  CB        42.0130   18.9240   16.0550 C.3    88  ARG88       0.0307
     88  CG        41.1820   18.6190   17.3070 C.3    88  ARG88       0.0489
     89  CD        41.4770   19.5700   18.4550 C.3    88  ARG88       0.2205
     90  NE        42.8510   19.4330   18.9420 N.pl3  88  ARG88      -0.0865
     91  CZ        43.2820   19.8630   20.1280 C.cat  88  ARG88       0.5346
     92  NH1       42.4480   20.4660   20.9720 N.pl3  88  ARG88       0.1354
     93  NH2       44.5560   19.7080   20.4630 N.pl3  88  ARG88       0.1354
     94  N         48.0850   23.7870   18.5250 N.3    94  THR94      -0.1218
     95  CA        47.8440   24.6180   19.7300 C.3    94  THR94       0.1862
     96  C         48.5720   25.9500   19.6510 C.2    94  THR94       0.2287
     97  O         47.9730   27.0060   19.8610 O.2    94  THR94      -0.2866
     98  CB        48.2930   23.8950   21.0200 C.3    94  THR94       0.1770
     99  OG1       47.6970   22.5950   21.0710 O.3    94  THR94      -0.2211
    100  CG2       47.9100   24.6960   22.2760 C.3    94  THR94       0.0375
    101  N         44.3550   29.1030   12.8610 N.3   105  ARG105     -0.1245
    102  CA        45.4550   29.6950   13.6000 C.3   105  ARG105      0.1563
    103  C         46.6080   30.1250   12.6970 C.2   105  ARG105      0.2260
    104  O         47.1550   31.2050   12.8920 O.2   105  ARG105     -0.2867
    105  CB        45.9090   28.7660   14.7160 C.3   105  ARG105      0.0307
    106  CG        44.9920   28.8280   15.9130 C.3   105  ARG105      0.0489
    107  CD        45.4100   27.8160   16.9500 C.3   105  ARG105      0.2205
    108  NE        44.3750   27.6170   17.9530 N.pl3 105  ARG105     -0.0865
    109  CZ        44.1720   26.4790   18.6100 C.cat 105  ARG105      0.5346
    110  NH1       44.9220   25.4020   18.3590 N.pl3 105  ARG105      0.1354
    111  NH2       43.1910   26.4110   19.5010 N.pl3 105  ARG105      0.1354
    112  N         50.1520   33.9850   18.6430 N.3   111  GLU111     -0.1231
    113  CA        50.6810   33.5450   19.9250 C.3   111  GLU111      0.1699
    114  C         49.7590   32.5170   20.5930 C.2   111  GLU111      0.2592
    115  O         48.5370   32.6190   20.4940 O.2   111  GLU111     -0.2718
    116  CB        50.8760   34.7770   20.8130 C.3   111  GLU111      0.0402
    117  CG        51.9170   34.6250   21.8870 C.3   111  GLU111      0.1161
    118  CD        51.5720   35.4510   23.1050 C.2   111  GLU111      0.3649
    119  OE1       51.8810   36.6670   23.1130 O.co2 111  GLU111     -0.2457
    120  OE2       50.9820   34.8650   24.0490 O.co2 111  GLU111     -0.2457
    121  N         50.3520   31.5330   21.2700 N.am  112  VAL112     -0.1966
    122  CA        49.5960   30.4440   21.9080 C.3   112  VAL112      0.1727
    123  C         48.5280   30.9110   22.9170 C.2   112  VAL112      0.2616
    124  O         47.4540   30.3150   23.0050 O.2   112  VAL112     -0.2715
    125  CB        50.5430   29.3670   22.5210 C.3   112  VAL112      0.0290
    126  CG1       51.3650   29.9300   23.6970 C.3   112  VAL112      0.0023
    127  CG2       49.7670   28.0980   22.9060 C.3   112  VAL112      0.0023
    128  N         48.8200   31.9890   23.6450 N.am  113  GLY113     -0.1955
    129  CA        47.9070   32.5180   24.6600 C.3   113  GLY113      0.1869
    130  C         46.7720   33.3410   24.0750 C.2   113  GLY113      0.2309
    131  O         45.8450   33.7310   24.7830 O.2   113  GLY113     -0.2863
    132  N         45.1860   32.2370   20.9210 N.3   115  ASN115     -0.1240
    133  CA        44.7040   31.4770   19.7870 C.3   115  ASN115      0.1653
    134  C         43.1780   31.6320   19.7970 C.2   115  ASN115      0.2266
    135  O         42.5910   31.8550   20.8490 O.2   115  ASN115     -0.2867
    136  CB        45.2720   30.0430   19.7680 C.3   115  ASN115      0.1155
    137  CG        44.9000   29.2080   20.9950 C.2   115  ASN115      0.2627
    138  OD1       45.3760   28.0730   21.1480 O.2   115  ASN115     -0.2716
    139  ND2       44.0480   29.7410   21.8510 N.am  115  ASN115     -0.0877
    140  N         40.3380   30.1140   19.4050 N.3   117  ILE117     -0.1231
    141  CA        39.3220   29.0890   19.4110 C.3   117  ILE117      0.1692
    142  C         39.7420   27.8740   20.2510 C.2   117  ILE117      0.2592
    143  O         40.9340   27.6050   20.4340 O.2   117  ILE117     -0.2718
    144  CB        38.9950   28.6900   17.9310 C.3   117  ILE117      0.0266
    145  CG1       37.6260   28.0330   17.7960 C.3   117  ILE117      0.0019
    146  CG2       40.1270   27.8480   17.3180 C.3   117  ILE117      0.0020
    147  CD1       37.2730   27.6400   16.3760 C.3   117  ILE117      0.0001
    148  N         38.7420   27.1670   20.7760 N.am  118  HIS118     -0.1962
    149  CA        38.9430   25.8890   21.4490 C.3   118  HIS118      0.1787
    150  C         38.2690   24.7580   20.6680 C.2   118  HIS118      0.2620
    151  O         37.1660   24.9310   20.1710 O.2   118  HIS118     -0.2715
    152  CB        38.3640   25.9260   22.8650 C.3   118  HIS118      0.0785
    153  CG        38.3210   24.5850   23.5180 C.ar  118  HIS118      0.0821
    154  ND1       37.2550   23.7220   23.3730 N.ar  118  HIS118     -0.2267
    155  CD2       39.2360   23.9330   24.2730 C.ar  118  HIS118      0.1154
    156  CE1       37.5050   22.6060   24.0360 C.ar  118  HIS118      0.1986
    157  NE2       38.7000   22.7100   24.5930 N.ar  118  HIS118     -0.2212
    158  N         38.9370   23.6100   20.5700 N.am  119  GLY119     -0.1954
    159  CA        38.3120   22.3790   20.0900 C.3   119  GLY119      0.1869
    160  C         38.6580   21.2080   20.9890 C.2   119  GLY119      0.2309
    161  O         39.8010   21.1010   21.4490 O.2   119  GLY119     -0.2863
    162  N         39.9320   17.7650   22.2930 N.3   121  ASP121     -0.1239
    163  CA        41.1210   17.0560   21.7940 C.3   121  ASP121      0.1674
    164  C         40.8750   15.5800   21.4500 C.2   121  ASP121      0.2266
    165  O         41.7020   14.9390   20.8050 O.2   121  ASP121     -0.2867
    166  CB        42.2850   17.1990   22.7860 C.3   121  ASP121      0.1410
    167  CG        41.9350   16.7010   24.1860 C.2   121  ASP121      0.3668
    168  OD1       40.9300   15.9780   24.3500 O.co2 121  ASP121     -0.2456
    169  OD2       42.6810   17.0200   25.1260 O.co2 121  ASP121     -0.2456
@<TRIPOS>BOND
     1   103   104    2
     2   103   102    1
     3   101   102    1
     4   102   105    1
     5    85    86    2
     6    85    84    1
     7   105   106    1
     8    83    84    1
     9    84    87    1
    10   106   107    1
    11    87    88    1
    12   147   145    1
    13   107   108    1
    14    88    89    1
    15   146   144    1
    16   145   144    1
    17   144   141    1
    18   108   109    2
    19   110   109    1
    20    89    90    1
    21    94    95    1
    22   109   111    1
    23   112   113    1
    24    90    91    2
    25   140   141    1
    26   141   142    1
    27    96    95    1
    28    96    97    2
    29    95    98    1
    30   136   133    1
    31   136   137    1
    32   133   134    1
    33   133   132    1
    34   134   135    2
    35   113   114    1
    36   113   116    1
    37   159   158    1
    38   159   160    1
    39    91    93    1
    40    91    92    1
    41   151   150    2
    42   142   143    2
    43   142   148   am
    44   115   114    2
    45   158   150   am
    46   114   121   am
    47   150   149    1
    48   148   149    1
    49   165   164    2
    50   116   117    1
    51   160   161    2
    52   137   138    2
    53   137   139   am
    54    98    99    1
    55    98   100    1
    56     1     2    1
    57   121   122    1
    58     4     3    2
    59   149   152    1
    60   164   163    1
    61   163   162    1
    62   163   166    1
    63   117   118    1
    64   122   125    1
    65   122   123    1
    66     3     2    1
    67     2     5    1
    68   125   127    1
    69   125   126    1
    70     5     6    1
    71   166   167    1
    72   152   153    1
    73   123   124    2
    74   123   128   am
    75     6     7    1
    76     7     8    1
    77   118   119   ar
    78   118   120   ar
    79     9     8    1
    80   154   153   ar
    81   154   156   ar
    82   153   155   ar
    83   128   129    1
    84    82    81    1
    85   156   157   ar
    86   130   129    1
    87   130   131    2
    88   167   168   ar
    89   167   169   ar
    90   155   157   ar
    91    81    79   ar
    92    81    80   ar
    93    79    77   ar
    94    80    78   ar
    95    21    20    1
    96    77    76   ar
    97    78    76   ar
    98    76    75    1
    99    20    18   ar
   100    20    19   ar
   101    18    16   ar
   102    69    68    1
   103    74    73    2
   104    19    17   ar
   105    40    38    1
   106    16    15   ar
   107    75    72    1
   108    73    72    1
   109    39    38    1
   110    51    49   ar
   111    51    50   ar
   112    28    27    1
   113    49    47   ar
   114    70    68    1
   115    68    67    1
   116    38    37    2
   117    72    71    1
   118    50    48   ar
   119    29    27    1
   120    17    15   ar
   121    15    14    1
   122    47    46   ar
   123    48    46   ar
   124    61    60    1
   125    66    65    2
   126    27    26    1
   127    67    64    1
   128    46    45    1
   129    64    65    1
   130    64    63    1
   131    37    36    1
   132    45    42    1
   133    14    11    1
   134    55    54    2
   135    60    62    1
   136    60    59    2
   137    11    10    1
   138    11    12    1
   139    63    54   am
   140    26    23    1
   141    36    35    1
   142    54    53    1
   143    58    59    1
   144    58    57    1
   145    56    57    1
   146    56    53    1
   147    44    43    2
   148    35    34    1
   149    42    43    1
   150    42    41    1
   151    12    13    2
   152    23    22    1
   153    23    24    1
   154    53    52    1
   155    34    31    1
   156    24    25    2
   157    31    32    1
   158    31    30    1
   159    32    33    2
