@<TRIPOS>MOLECULE
tmp/1zsjA00.pdb
 148 146 0 0 0
SMALL
GASTEIGER

@<TRIPOS>ATOM
      1  N         18.1740   49.8100   30.3550 N.3    44  HIS44      -0.1241
      2  CA        17.9910   51.1790   29.9020 C.3    44  HIS44       0.1621
      3  C         16.7010   51.8150   30.4000 C.2    44  HIS44       0.2264
      4  O         16.4000   52.9660   30.0890 O.2    44  HIS44      -0.2867
      5  CB        18.0110   51.2130   28.3910 C.3    44  HIS44       0.0745
      6  CG        16.7100   50.7990   27.7870 C.ar   44  HIS44       0.0817
      7  ND1       16.4630   49.5170   27.3580 N.ar   44  HIS44      -0.2268
      8  CD2       15.5490   51.4850   27.6450 C.ar   44  HIS44       0.1154
      9  CE1       15.1980   49.4310   26.9750 C.ar   44  HIS44       0.1986
     10  NE2       14.6240   50.6080   27.1380 N.ar   44  HIS44      -0.2212
     11  N          3.7700   52.0420   22.8570 N.3   134  TYR134     -0.1241
     12  CA         3.1970   52.7110   21.7020 C.3   134  TYR134      0.1605
     13  C          2.6320   51.7470   20.6710 C.2   134  TYR134      0.2264
     14  O          3.1870   50.6670   20.4390 O.2   134  TYR134     -0.2867
     15  CB         4.2510   53.5780   21.0210 C.3   134  TYR134      0.0534
     16  CG         4.6330   54.8150   21.7840 C.ar  134  TYR134     -0.0201
     17  CD1        4.3160   54.9530   23.1260 C.ar  134  TYR134     -0.0009
     18  CD2        5.3330   55.8460   21.1630 C.ar  134  TYR134     -0.0009
     19  CE1        4.6810   56.0760   23.8320 C.ar  134  TYR134      0.0417
     20  CE2        5.7040   56.9780   21.8650 C.ar  134  TYR134      0.0417
     21  CZ         5.3770   57.0860   23.1970 C.ar  134  TYR134      0.1957
     22  OH         5.7620   58.2130   23.8860 O.3   134  TYR134     -0.2866
     23  N          4.4800   55.1520   15.9020 N.3   137  LEU137     -0.1245
     24  CA         5.6750   55.9550   16.1300 C.3   137  LEU137      0.1561
     25  C          5.3820   57.0670   17.1340 C.2   137  LEU137      0.2260
     26  O          5.9670   57.1080   18.2190 O.2   137  LEU137     -0.2867
     27  CB         6.1770   56.5460   14.8050 C.3   137  LEU137      0.0270
     28  CG         7.6790   56.8070   14.7700 C.3   137  LEU137      0.0019
     29  CD1        8.3930   55.7120   15.5350 C.3   137  LEU137      0.0001
     30  CD2        8.1630   56.8410   13.3350 C.3   137  LEU137      0.0001
     31  N          5.4510   44.5790   16.0020 N.3   182  ASP182     -0.1225
     32  CA         6.7300   44.7690   16.6800 C.3   182  ASP182      0.1805
     33  C          6.4910   45.4410   18.0250 C.2   182  ASP182      0.2598
     34  O          5.4000   45.9500   18.2880 O.2   182  ASP182     -0.2718
     35  CB         7.6030   45.6620   15.7760 C.3   182  ASP182      0.1424
     36  CG         9.0220   45.8750   16.3000 C.2   182  ASP182      0.3668
     37  OD1        9.4970   45.1110   17.1680 O.co2 182  ASP182     -0.2456
     38  OD2        9.6790   46.8200   15.8060 O.co2 182  ASP182     -0.2456
     39  N          7.5030   45.4250   18.8860 N.am  183  ALA183     -0.1966
     40  CA         7.4010   46.0940   20.1750 C.3   183  ALA183      0.1728
     41  C          7.7010   47.5560   19.8580 C.2   183  ALA183      0.2616
     42  O          8.1060   47.8750   18.7430 O.2   183  ALA183     -0.2715
     43  CB         8.4420   45.5380   21.1440 C.3   183  ALA183      0.0334
     44  N          7.5040   48.4480   20.8210 N.am  184  CYS184     -0.1954
     45  CA         7.7750   49.8610   20.5810 C.3   184  CYS184      0.1843
     46  C          8.0600   50.5400   21.9090 C.2   184  CYS184      0.2625
     47  O          8.0720   49.8850   22.9490 O.2   184  CYS184     -0.2714
     48  CB         6.5720   50.5190   19.8950 C.3   184  CYS184      0.0997
     49  SG         6.9520   52.0580   18.9860 S.3   184  CYS184     -0.0797
     50  N          8.2940   51.8490   21.8730 N.am  185  LYS185     -0.1977
     51  CA         8.5710   52.5960   23.0910 C.3   185  LYS185      0.1596
     52  C          7.4880   52.2880   24.1120 C.2   185  LYS185      0.2287
     53  O          6.3080   52.2260   23.7700 O.2   185  LYS185     -0.2864
     54  CB         8.6040   54.0950   22.7990 C.3   185  LYS185      0.0298
     55  CG         8.9190   54.9520   24.0120 C.3   185  LYS185      0.0038
     56  CD         9.2250   56.3860   23.6110 C.3   185  LYS185      0.0206
     57  CE         9.4970   57.2510   24.8340 C.3   185  LYS185      0.1093
     58  NZ        10.0070   58.5990   24.4600 N.3   185  LYS185     -0.1314
     59  N          9.6040   48.4880   26.4830 N.3   188  SER188     -0.1217
     60  CA        10.9230   48.1780   27.0120 C.3   188  SER188      0.1889
     61  C         10.8190   47.3840   28.3160 C.2   188  SER188      0.2288
     62  O          9.9320   47.6250   29.1300 O.2   188  SER188     -0.2866
     63  CB        11.6950   49.4820   27.2310 C.3   188  SER188      0.2089
     64  OG        11.8360   50.1670   25.9980 O.3   188  SER188     -0.2183
     65  N         12.4290   42.9600   25.6930 N.3   206  THR206     -0.1203
     66  CA        12.3000   44.0550   24.7260 C.3   206  THR206      0.1994
     67  C         13.3940   45.0870   24.9970 C.2   206  THR206      0.2619
     68  O         13.4790   45.6550   26.0940 O.2   206  THR206     -0.2717
     69  CB        10.9070   44.6920   24.8190 C.3   206  THR206      0.1784
     70  OG1        9.9240   43.7150   24.4560 O.3   206  THR206     -0.2211
     71  CG2       10.7860   45.8880   23.8720 C.3   206  THR206      0.0376
     72  N         14.2220   45.3400   23.9870 N.am  207  SER207     -0.1937
     73  CA        15.3560   46.2380   24.1510 C.3   207  SER207      0.2055
     74  C         15.4050   47.4510   23.2240 C.2   207  SER207      0.2643
     75  O         15.4210   48.5850   23.6950 O.2   207  SER207     -0.2714
     76  CB        16.6490   45.4180   24.0060 C.3   207  SER207      0.2130
     77  OG        17.8020   46.1540   24.3800 O.3   207  SER207     -0.2179
     78  N         15.4460   47.2210   21.9160 N.am  208  TRP208     -0.1959
     79  CA        15.5090   48.3360   20.9750 C.3   208  TRP208      0.1771
     80  C         15.1400   47.9810   19.5420 C.2   208  TRP208      0.2620
     81  O         14.8220   46.8360   19.2200 O.2   208  TRP208     -0.2715
     82  CB        16.9130   48.9590   20.9720 C.3   208  TRP208      0.0590
     83  CG        18.0150   48.0150   20.5460 C.ar  208  TRP208      0.0006
     84  CD1       18.5990   47.0360   21.3030 C.ar  208  TRP208      0.0946
     85  CD2       18.6710   47.9760   19.2670 C.ar  208  TRP208      0.0152
     86  NE1       19.5810   46.3960   20.5760 N.ar  208  TRP208     -0.2442
     87  CE2       19.6420   46.9540   19.3250 C.ar  208  TRP208      0.0810
     88  CE3       18.5310   48.7080   18.0800 C.ar  208  TRP208      0.0012
     89  CZ2       20.4690   46.6450   18.2440 C.ar  208  TRP208      0.0191
     90  CZ3       19.3530   48.3990   17.0060 C.ar  208  TRP208      0.0001
     91  CH2       20.3110   47.3770   17.0980 C.ar  208  TRP208      0.0015
     92  N         15.1980   48.9930   18.6840 N.am  209  GLY209     -0.1940
     93  CA        14.8860   48.8120   17.2810 C.3   209  GLY209      0.2014
     94  C         14.8350   50.1690   16.6100 C.2   209  GLY209      0.2639
     95  O         14.6160   51.1880   17.2780 O.2   209  GLY209     -0.2714
     96  N         15.0550   50.2030   15.3000 N.am  210  GLU210     -0.1963
     97  CA        15.0100   51.4700   14.5750 C.3   210  GLU210      0.1733
     98  C         13.5550   51.7460   14.2520 C.2   210  GLU210      0.2617
     99  O         12.9950   51.1660   13.3200 O.2   210  GLU210     -0.2715
    100  CB        15.8250   51.3940   13.2800 C.3   210  GLU210      0.0429
    101  CG        15.8580   52.7160   12.5270 C.3   210  GLU210      0.1163
    102  CD        16.2490   53.8830   13.4230 C.2   210  GLU210      0.3649
    103  OE1       17.3530   53.8430   14.0050 O.co2 210  GLU210     -0.2457
    104  OE2       15.4550   54.8420   13.5480 O.co2 210  GLU210     -0.2457
    105  N         12.9450   52.6370   15.0240 N.am  211  GLY211     -0.1940
    106  CA        11.5420   52.9430   14.8210 C.3   211  GLY211      0.2014
    107  C         10.7500   51.7580   15.3460 C.2   211  GLY211      0.2639
    108  O         11.2240   51.0430   16.2280 O.2   211  GLY211     -0.2714
    109  N          9.5560   51.5360   14.8110 N.am  212  CYS212     -0.1967
    110  CA         8.7390   50.4140   15.2550 C.3   212  CYS212      0.1712
    111  C          7.9740   49.7890   14.1000 C.2   212  CYS212      0.2296
    112  O          7.3140   50.4910   13.3400 O.2   212  CYS212     -0.2864
    113  CB         7.7460   50.8730   16.3200 C.3   212  CYS212      0.0983
    114  SG         8.5330   51.5390   17.8180 S.3   212  CYS212     -0.0798
    115  N         13.2980   45.7970    9.5790 N.3   217  ARG217     -0.1245
    116  CA        13.8410   46.3540   10.8120 C.3   217  ARG217      0.1563
    117  C         13.2830   45.5560   11.9880 C.2   217  ARG217      0.2260
    118  O         12.3850   46.0090   12.6920 O.2   217  ARG217     -0.2867
    119  CB        13.4680   47.8360   10.9610 C.3   217  ARG217      0.0307
    120  CG        14.1970   48.7850   10.0080 C.3   217  ARG217      0.0489
    121  CD        15.7080   48.8070   10.2460 C.3   217  ARG217      0.2205
    122  NE        16.3230   49.9610    9.5940 N.pl3 217  ARG217     -0.0865
    123  CZ        17.5710   50.3700    9.8000 C.cat 217  ARG217      0.5346
    124  NH1       18.3630   49.7170   10.6440 N.pl3 217  ARG217      0.1354
    125  NH2       18.0210   51.4510    9.1810 N.pl3 217  ARG217      0.1354
    126  N         12.7260   43.7640   15.6130 N.3   219  GLY219     -0.1210
    127  CA        12.8950   44.2810   16.9550 C.3   219  GLY219      0.1956
    128  C         14.0810   43.5330   17.5330 C.2   219  GLY219      0.2612
    129  O         14.3030   42.3660   17.1900 O.2   219  GLY219     -0.2717
    130  N         14.8520   44.1930   18.3900 N.am  220  VAL220     -0.1965
    131  CA        16.0110   43.5630   19.0010 C.3   220  VAL220      0.1727
    132  C         15.7320   43.3220   20.4770 C.2   220  VAL220      0.2616
    133  O         15.2180   44.1980   21.1720 O.2   220  VAL220     -0.2715
    134  CB        17.2720   44.4360   18.8500 C.3   220  VAL220      0.0290
    135  CG1       18.4900   43.6790   19.3850 C.3   220  VAL220      0.0023
    136  CG2       17.4800   44.8000   17.3760 C.3   220  VAL220      0.0023
    137  N         16.0780   42.1270   20.9450 N.am  221  TYR221     -0.1974
    138  CA        15.8310   41.7440   22.3280 C.3   221  TYR221      0.1639
    139  C         17.0650   41.1670   22.9930 C.2   221  TYR221      0.2290
    140  O         17.9580   40.6430   22.3290 O.2   221  TYR221     -0.2864
    141  CB        14.7180   40.6860   22.3950 C.3   221  TYR221      0.0560
    142  CG        13.4230   41.0830   21.7260 C.ar  221  TYR221     -0.0198
    143  CD1       13.3100   41.1160   20.3410 C.ar  221  TYR221     -0.0009
    144  CD2       12.3170   41.4450   22.4820 C.ar  221  TYR221     -0.0009
    145  CE1       12.1260   41.5060   19.7290 C.ar  221  TYR221      0.0417
    146  CE2       11.1350   41.8320   21.8830 C.ar  221  TYR221      0.0417
    147  CZ        11.0410   41.8640   20.5080 C.ar  221  TYR221      0.1957
    148  OH         9.8600   42.2660   19.9190 O.3   221  TYR221     -0.2866
@<TRIPOS>BOND
     1   125   123    1
     2   115   116    1
     3   122   123    2
     4   122   121    1
     5   123   124    1
     6   120   121    1
     7   120   119    1
     8   116   119    1
     9   116   117    1
    10   117   118    2
    11   101   100    1
    12   101   102    1
    13   100    97    1
    14    99    98    2
    15    30    28    1
    16   112   111    2
    17   102   104   ar
    18   102   103   ar
    19   111   110    1
    20    98    97    1
    21    98   105   am
    22    97    96    1
    23    28    27    1
    24    28    29    1
    25    27    24    1
    26   109   110    1
    27   109   107   am
    28   106   105    1
    29   106   107    1
    30   110   113    1
    31    96    94   am
    32   107   108    2
    33   126   127    1
    34    35    36    1
    35    35    32    1
    36    38    36   ar
    37    23    24    1
    38    31    32    1
    39    24    25    1
    40    36    37   ar
    41   113   114    1
    42    94    95    2
    43    94    93    1
    44    32    33    1
    45   127   128    1
    46    90    91   ar
    47    90    88   ar
    48    91    89   ar
    49    25    26    2
    50   129   128    2
    51    93    92    1
    52   136   134    1
    53   128   130   am
    54   114    49    1
    55    33    34    2
    56    33    39   am
    57    88    85   ar
    58    89    87   ar
    59   130   131    1
    60    92    80   am
    61    42    41    2
    62   134   131    1
    63   134   135    1
    64    39    40    1
    65    49    48    1
    66   131   132    1
    67    81    80    2
    68    85    87   ar
    69    85    83   ar
    70    87    86   ar
    71    80    79    1
    72   145   143   ar
    73   145   147   ar
    74    41    40    1
    75    41    44   am
    76    48    45    1
    77   148   147    1
    78    40    43    1
    79   143   142   ar
    80    14    13    2
    81   132   137   am
    82   132   133    2
    83   147   146   ar
    84    83    82    1
    85    83    84   ar
    86    86    84   ar
    87    45    44    1
    88    45    46    1
    89    13    12    1
    90   137   138    1
    91    82    79    1
    92    79    78    1
    93    15    12    1
    94    15    16    1
    95    18    16   ar
    96    18    20   ar
    97    12    11    1
    98   142   141    1
    99   142   144   ar
   100    16    17   ar
   101    20    21   ar
   102    50    46   am
   103    50    51    1
   104   146   144   ar
   105    46    47    2
   106    78    74   am
   107   138   141    1
   108   138   139    1
   109   140   139    2
   110    54    51    1
   111    54    55    1
   112    51    52    1
   113    17    19   ar
   114    21    19   ar
   115    21    22    1
   116    74    75    2
   117    74    73    1
   118    56    55    1
   119    56    57    1
   120    53    52    2
   121    71    69    1
   122    72    73    1
   123    72    67   am
   124    76    73    1
   125    76    77    1
   126    70    69    1
   127    58    57    1
   128    66    69    1
   129    66    67    1
   130    66    65    1
   131    67    68    2
   132    64    63    1
   133    59    60    1
   134     9    10   ar
   135     9     7   ar
   136    60    63    1
   137    60    61    1
   138    10     8   ar
   139     7     6   ar
   140     8     6   ar
   141     6     5    1
   142    61    62    2
   143     5     2    1
   144     2     1    1
   145     2     3    1
   146     4     3    2
