@<TRIPOS>MOLECULE
tmp/1zsnA01.pdb
 152 144 0 0 0
SMALL
GASTEIGER

@<TRIPOS>ATOM
      1  N         43.9840   83.6300   37.5730 N.3   119  SER119     -0.1202
      2  CA        44.5820   84.9250   37.8970 C.3   119  SER119      0.2020
      3  C         46.0880   84.8780   37.6840 C.2   119  SER119      0.2619
      4  O         46.8680   85.1660   38.5970 O.2   119  SER119     -0.2717
      5  CB        44.2710   85.3200   39.3390 C.3   119  SER119      0.2103
      6  OG        44.9330   84.4530   40.2400 O.3   119  SER119     -0.2182
      7  N         46.4970   84.5210   36.4690 N.am  120  LEU120     -0.1965
      8  CA        47.9070   84.3260   36.1790 C.3   120  LEU120      0.1728
      9  C         48.2900   84.7620   34.7860 C.2   120  LEU120      0.2616
     10  O         47.4850   84.7070   33.8690 O.2   120  LEU120     -0.2715
     11  CB        48.2880   82.8580   36.3970 C.3   120  LEU120      0.0311
     12  CG        47.7630   81.7470   35.4800 C.3   120  LEU120      0.0022
     13  CD1       48.7610   81.4890   34.3840 C.3   120  LEU120      0.0001
     14  CD2       47.5090   80.4620   36.2750 C.3   120  LEU120      0.0001
     15  N         49.5370   85.1970   34.6410 N.am  121  ALA121     -0.1963
     16  CA        50.1200   85.5090   33.3330 C.3   121  ALA121      0.1728
     17  C         51.6290   85.2930   33.3370 C.2   121  ALA121      0.2616
     18  O         52.2980   85.4040   34.3760 O.2   121  ALA121     -0.2715
     19  CB        49.7930   86.9350   32.9190 C.3   121  ALA121      0.0334
     20  N         52.1510   84.9660   32.1620 N.am  122  ASN122     -0.1958
     21  CA        53.5790   84.9420   31.9250 C.3   122  ASN122      0.1819
     22  C         53.8980   85.2830   30.4690 C.2   122  ASN122      0.2621
     23  O         53.2410   84.8270   29.5300 O.2   122  ASN122     -0.2715
     24  CB        54.1810   83.5990   32.3120 C.3   122  ASN122      0.1195
     25  CG        55.5330   83.7350   32.9710 C.2   122  ASN122      0.2630
     26  OD1       55.7760   83.1250   34.0070 O.2   122  ASN122     -0.2716
     27  ND2       56.4190   84.5310   32.3850 N.am  122  ASN122     -0.0877
     28  N         54.9050   86.1230   30.3100 N.am  123  ALA123     -0.1977
     29  CA        55.3820   86.5200   29.0180 C.3   123  ALA123      0.1597
     30  C         56.8980   86.6920   29.1180 C.2   123  ALA123      0.2287
     31  O         57.3970   87.7920   29.4280 O.2   123  ALA123     -0.2864
     32  CB        54.7060   87.8160   28.5980 C.3   123  ALA123      0.0319
     33  N         58.1060   89.9350   27.6800 N.3   126  VAL126     -0.1245
     34  CA        57.3590   91.1650   27.9500 C.3   126  VAL126      0.1561
     35  C         58.1840   92.4410   27.6890 C.2   126  VAL126      0.2260
     36  O         57.6680   93.4340   27.1830 O.2   126  VAL126     -0.2867
     37  CB        56.7320   91.1550   29.3830 C.3   126  VAL126      0.0252
     38  CG1       57.8000   91.0930   30.4680 C.3   126  VAL126      0.0019
     39  CG2       55.8380   92.3560   29.5830 C.3   126  VAL126      0.0019
     40  N         43.2080   92.7540   30.6440 N.3   171  TYR171     -0.1241
     41  CA        43.7330   94.1140   30.6590 C.3   171  TYR171      0.1605
     42  C         43.5470   94.8940   29.3130 C.2   171  TYR171      0.2264
     43  O         43.7240   94.3520   28.2030 O.2   171  TYR171     -0.2867
     44  CB        45.1860   94.0870   31.1500 C.3   171  TYR171      0.0534
     45  CG        45.8330   95.4360   31.2360 C.ar  171  TYR171     -0.0201
     46  CD1       45.3070   96.4240   32.0680 C.ar  171  TYR171     -0.0009
     47  CD2       46.9750   95.7370   30.4790 C.ar  171  TYR171     -0.0009
     48  CE1       45.9000   97.6780   32.1510 C.ar  171  TYR171      0.0417
     49  CE2       47.5770   96.9970   30.5570 C.ar  171  TYR171      0.0417
     50  CZ        47.0250   97.9600   31.3910 C.ar  171  TYR171      0.1957
     51  OH        47.5740   99.2140   31.4800 O.3   171  TYR171     -0.2866
     52  N         53.7270   97.2410   27.3940 N.3   181  TYR181     -0.1241
     53  CA        53.0390   95.9860   27.7000 C.3   181  TYR181      0.1605
     54  C         53.2220   95.0550   26.5290 C.2   181  TYR181      0.2264
     55  O         52.3020   94.8710   25.7270 O.2   181  TYR181     -0.2867
     56  CB        51.5480   96.2700   27.9100 C.3   181  TYR181      0.0534
     57  CG        50.7500   95.1800   28.5610 C.ar  181  TYR181     -0.0201
     58  CD1       50.8420   94.9340   29.9330 C.ar  181  TYR181     -0.0009
     59  CD2       49.8690   94.4190   27.8140 C.ar  181  TYR181     -0.0009
     60  CE1       50.0850   93.9270   30.5360 C.ar  181  TYR181      0.0417
     61  CE2       49.1080   93.4110   28.3990 C.ar  181  TYR181      0.0417
     62  CZ        49.2180   93.1640   29.7540 C.ar  181  TYR181      0.1957
     63  OH        48.4460   92.1600   30.2990 O.3   181  TYR181     -0.2866
     64  N         51.8240   89.8700   25.6470 N.3   185  MET185     -0.1245
     65  CA        50.7860   90.1240   26.6630 C.3   185  MET185      0.1570
     66  C         49.4860   90.7310   26.1300 C.2   185  MET185      0.2261
     67  O         48.4110   90.3030   26.5250 O.2   185  MET185     -0.2867
     68  CB        51.3170   90.9880   27.8120 C.3   185  MET185      0.0387
     69  CG        52.0100   90.2160   28.9100 C.3   185  MET185      0.0595
     70  SD        51.1680   88.6860   29.3570 S.3   185  MET185     -0.1393
     71  CE        49.5800   89.2990   29.9350 C.3   185  MET185      0.0692
     72  N         45.9760   88.7400   26.1500 N.3   189  LYS189     -0.1245
     73  CA        44.7230   89.2070   26.7430 C.3   189  LYS189      0.1561
     74  C         43.6330   89.3700   25.6740 C.2   189  LYS189      0.2260
     75  O         42.4490   89.1330   25.9260 O.2   189  LYS189     -0.2867
     76  CB        44.9360   90.5150   27.5200 C.3   189  LYS189      0.0271
     77  CG        45.9830   90.4440   28.6230 C.3   189  LYS189      0.0035
     78  CD        45.7580   89.2860   29.5660 C.3   189  LYS189      0.0206
     79  CE        46.0370   89.7230   31.0020 C.3   189  LYS189      0.1093
     80  NZ        46.0820   88.5870   31.9680 N.3   189  LYS189     -0.1314
     81  N         42.2680   97.4630   36.4800 N.3   217  GLY217     -0.1210
     82  CA        43.2080   98.5670   36.3320 C.3   217  GLY217      0.1940
     83  C         44.5080   98.2160   37.0170 C.2   217  GLY217      0.2454
     84  O         44.7250   97.0640   37.3540 O.2   217  GLY217     -0.2732
     85  N         45.3820   99.2040   37.2600 N.am  218  PRO218     -0.2717
     86  CA        46.7120   98.7810   37.6720 C.3   218  PRO218      0.1535
     87  C         46.8200   98.5310   39.1820 C.2   218  PRO218      0.2598
     88  O         46.1920   99.2330   40.0070 O.2   218  PRO218     -0.2715
     89  CB        47.5840   99.9520   37.2560 C.3   218  PRO218      0.0310
     90  CG        46.6830  101.1530   37.4500 C.3   218  PRO218      0.0237
     91  CD        45.2630  100.6740   37.2240 C.3   218  PRO218      0.0939
     92  N         47.6020   97.5100   39.5120 N.am  219  LEU219     -0.1978
     93  CA        47.9470   97.1910   40.8760 C.3   219  LEU219      0.1596
     94  C         49.4340   96.8640   40.9680 C.2   219  LEU219      0.2287
     95  O         49.9730   96.1260   40.1260 O.2   219  LEU219     -0.2864
     96  CB        47.1270   96.0030   41.3620 C.3   219  LEU219      0.0297
     97  CG        47.2470   95.7200   42.8590 C.3   219  LEU219      0.0022
     98  CD1       46.5840   96.8390   43.6650 C.3   219  LEU219      0.0001
     99  CD2       46.6290   94.3760   43.1720 C.3   219  LEU219      0.0001
    100  N         51.5570   94.7210   41.9580 N.3   221  SER221     -0.1217
    101  CA        51.8790   93.3420   42.3280 C.3   221  SER221      0.1889
    102  C         53.2940   92.9860   41.8880 C.2   221  SER221      0.2288
    103  O         53.9290   93.7640   41.1690 O.2   221  SER221     -0.2866
    104  CB        50.8820   92.3850   41.7040 C.3   221  SER221      0.2089
    105  OG        50.6640   92.6880   40.3410 O.3   221  SER221     -0.2183
    106  N         54.3110   90.7100   39.8130 N.3   223  ALA223     -0.1231
    107  CA        54.3520   90.5070   38.3840 C.3   223  ALA223      0.1694
    108  C         54.4890   91.8420   37.6780 C.2   223  ALA223      0.2591
    109  O         55.2380   91.9700   36.7140 O.2   223  ALA223     -0.2718
    110  CB        53.1170   89.7940   37.9250 C.3   223  ALA223      0.0304
    111  N         53.7580   92.8370   38.1760 N.am  224  ALA224     -0.1980
    112  CA        53.6860   94.1550   37.5580 C.3   224  ALA224      0.1597
    113  C         54.9910   94.9180   37.7190 C.2   224  ALA224      0.2287
    114  O         55.3560   95.7030   36.8340 O.2   224  ALA224     -0.2864
    115  CB        52.5380   94.9420   38.1470 C.3   224  ALA224      0.0319
    116  N         57.8970   93.4880   37.8710 N.3   226  ALA226     -0.1231
    117  CA        58.8400   92.7830   37.0160 C.3   226  ALA226      0.1694
    118  C         58.7250   93.1560   35.5430 C.2   226  ALA226      0.2591
    119  O         59.6060   92.8130   34.7770 O.2   226  ALA226     -0.2718
    120  CB        58.7040   91.2980   37.1910 C.3   226  ALA226      0.0304
    121  N         57.6650   93.8430   35.1210 N.am  227  ILE227     -0.1980
    122  CA        57.6880   94.4390   33.7780 C.3   227  ILE227      0.1595
    123  C         58.8250   95.4750   33.7090 C.2   227  ILE227      0.2287
    124  O         59.7720   95.3010   32.9330 O.2   227  ILE227     -0.2864
    125  CB        56.3650   95.1170   33.3760 C.3   227  ILE227      0.0276
    126  CG1       55.1940   94.1510   33.5150 C.3   227  ILE227      0.0022
    127  CG2       56.4690   95.6410   31.9480 C.3   227  ILE227      0.0022
    128  CD1       53.8500   94.7780   33.2580 C.3   227  ILE227      0.0001
    129  N         56.8680  100.5120   34.4300 N.3   231  PHE231     -0.1227
    130  CA        55.6220  100.6600   33.6480 C.3   231  PHE231      0.1736
    131  C         54.3760  100.2550   34.4410 C.2   231  PHE231      0.2595
    132  O         53.3870   99.7960   33.8530 O.2   231  PHE231     -0.2718
    133  CB        55.6600   99.8170   32.3550 C.3   231  PHE231      0.0547
    134  CG        56.6570  100.3000   31.3040 C.ar  231  PHE231     -0.0202
    135  CD1       56.9370  101.6600   31.1300 C.ar  231  PHE231     -0.0042
    136  CD2       57.2870   99.3730   30.4510 C.ar  231  PHE231     -0.0042
    137  CE1       57.8510  102.0830   30.1490 C.ar  231  PHE231     -0.0003
    138  CE2       58.1990   99.7860   29.4690 C.ar  231  PHE231     -0.0003
    139  CZ        58.4820  101.1410   29.3180 C.ar  231  PHE231     -0.0000
    140  N         54.4590  100.3770   35.7710 N.am  232  ILE232     -0.1980
    141  CA        53.3220  100.2000   36.6730 C.3   232  ILE232      0.1595
    142  C         53.1940  101.4420   37.5280 C.2   232  ILE232      0.2287
    143  O         52.0890  101.8490   37.8790 O.2   232  ILE232     -0.2864
    144  CB        53.4510   98.9580   37.5910 C.3   232  ILE232      0.0276
    145  CG1       52.0950   98.5920   38.1940 C.3   232  ILE232      0.0022
    146  CG2       54.4390   99.1900   38.7200 C.3   232  ILE232      0.0022
    147  CD1       51.0520   98.1390   37.1970 C.3   232  ILE232      0.0001
    148  N         51.4240  103.6890   35.1910 N.3   235  ALA235     -0.1245
    149  CA        50.0490  103.2080   35.1280 C.3   235  ALA235      0.1562
    150  C         49.2430  103.7060   36.3160 C.2   235  ALA235      0.2260
    151  O         48.1860  104.2910   36.1440 O.2   235  ALA235     -0.2867
    152  CB        50.0320  101.6980   35.0600 C.3   235  ALA235      0.0290
@<TRIPOS>BOND
     1    64    65    1
     2    74    75    2
     3    74    73    1
     4    55    54    2
     5    66    67    2
     6    66    65    1
     7    72    73    1
     8    54    53    1
     9    65    68    1
    10    73    76    1
    11    36    35    2
    12    52    53    1
    13    76    77    1
    14    33    34    1
    15    35    34    1
    16    53    56    1
    17    68    69    1
    18    59    61   ar
    19    59    57   ar
    20    56    57    1
    21    34    37    1
    22    43    42    2
    23    61    62   ar
    24    57    58   ar
    25    32    29    1
    26    77    78    1
    27    69    70    1
    28    29    30    1
    29    29    28    1
    30    30    31    2
    31    42    41    1
    32   139   138   ar
    33   139   137   ar
    34    70    71    1
    35    37    39    1
    36    37    38    1
    37   138   136   ar
    38    23    22    2
    39    78    79    1
    40    62    63    1
    41    62    60   ar
    42    58    60   ar
    43   137   135   ar
    44    28    22   am
    45   136   134   ar
    46    22    21    1
    47    47    49   ar
    48    47    45   ar
    49    49    50   ar
    50    40    41    1
    51    41    44    1
    52    79    80    1
    53   135   134   ar
    54    44    45    1
    55    45    46   ar
    56   134   133    1
    57    50    51    1
    58    50    48   ar
    59    21    20    1
    60    21    24    1
    61   127   125    1
    62    46    48   ar
    63    20    17   am
    64    24    25    1
    65   133   130    1
    66    27    25   am
    67    19    16    1
    68   124   123    2
    69    25    26    2
    70   128   126    1
    71    16    17    1
    72    16    15    1
    73    17    18    2
    74   125   126    1
    75   125   122    1
    76   130   129    1
    77   130   131    1
    78   123   122    1
    79   122   121    1
    80   132   131    2
    81    10     9    2
    82    13    12    1
    83   131   140   am
    84    15     9   am
    85   119   118    2
    86     9     8    1
    87   152   149    1
    88   121   118   am
    89   149   148    1
    90   149   150    1
    91    12    14    1
    92    12    11    1
    93   118   117    1
    94   140   141    1
    95   151   150    2
    96     8    11    1
    97     8     7    1
    98    82    81    1
    99    82    83    1
   100     7     3   am
   101   141   142    1
   102   141   144    1
   103   109   108    2
   104   114   113    2
   105   117   120    1
   106   117   116    1
   107    83    85   am
   108    83    84    2
   109   147   145    1
   110    91    85    1
   111    91    90    1
   112    89    90    1
   113    89    86    1
   114    85    86    1
   115   142   143    2
   116   112   113    1
   117   112   115    1
   118   112   111    1
   119     1     2    1
   120   144   145    1
   121   144   146    1
   122    86    87    1
   123   108   111   am
   124   108   107    1
   125     3     2    1
   126     3     4    2
   127     2     5    1
   128   110   107    1
   129   107   106    1
   130    87    92   am
   131    87    88    2
   132     5     6    1
   133    92    93    1
   134    95    94    2
   135   105   104    1
   136    93    94    1
   137    93    96    1
   138   103   102    2
   139    96    97    1
   140   104   101    1
   141   102   101    1
   142   100   101    1
   143    97    99    1
   144    97    98    1
