@<TRIPOS>MOLECULE
tmp/1zsqA00.pdb
 181 171 0 0 0
SMALL
GASTEIGER

@<TRIPOS>ATOM
      1  N         34.8320   48.9950  -46.5500 N.3   191  SER191     -0.1217
      2  CA        34.1400   49.1130  -47.8330 C.3   191  SER191      0.1889
      3  C         34.4570   47.9700  -48.8090 C.2   191  SER191      0.2288
      4  O         35.6150   47.6470  -49.0540 O.2   191  SER191     -0.2866
      5  CB        34.4540   50.4530  -48.4910 C.3   191  SER191      0.2089
      6  OG        33.5560   50.6880  -49.5570 O.3   191  SER191     -0.2183
      7  N         38.1430   52.2250  -47.1930 N.3   214  GLN214     -0.1245
      8  CA        37.7180   53.0320  -46.0610 C.3   214  GLN214      0.1566
      9  C         36.8100   52.2850  -45.0770 C.2   214  GLN214      0.2260
     10  O         36.1170   51.3290  -45.4440 O.2   214  GLN214     -0.2867
     11  CB        36.9820   54.2740  -46.5530 C.3   214  GLN214      0.0367
     12  CG        35.6460   53.9710  -47.2170 C.3   214  GLN214      0.0905
     13  CD        35.0060   55.2170  -47.7960 C.2   214  GLN214      0.2608
     14  OE1       34.3870   55.1830  -48.8690 O.2   214  GLN214     -0.2717
     15  NE2       35.1600   56.3290  -47.0940 N.am  214  GLN214     -0.0878
     16  N         33.5730   51.8600  -42.7420 N.3   216  MET216     -0.1245
     17  CA        32.2100   52.3490  -42.9030 C.3   216  MET216      0.1570
     18  C         31.7040   52.9680  -41.6070 C.2   216  MET216      0.2261
     19  O         30.8540   52.3960  -40.9110 O.2   216  MET216     -0.2867
     20  CB        31.3090   51.1960  -43.3560 C.3   216  MET216      0.0387
     21  CG        31.7730   50.5490  -44.6510 C.3   216  MET216      0.0595
     22  SD        31.7660   51.7020  -46.0430 S.3   216  MET216     -0.1393
     23  CE        30.0600   51.5770  -46.5940 C.3   216  MET216      0.0692
     24  N         43.1780   60.5440  -49.5240 N.3   250  ARG250     -0.1245
     25  CA        42.2780   61.6070  -49.8210 C.3   250  ARG250      0.1563
     26  C         42.4870   62.9200  -49.0780 C.2   250  ARG250      0.2260
     27  O         43.0760   63.1060  -48.0570 O.2   250  ARG250     -0.2867
     28  CB        40.8140   61.1840  -49.5630 C.3   250  ARG250      0.0307
     29  CG        40.2790   60.0210  -50.3400 C.3   250  ARG250      0.0489
     30  CD        38.8950   59.6180  -49.7950 C.3   250  ARG250      0.2205
     31  NE        39.0810   58.9450  -48.4970 N.pl3 250  ARG250     -0.0865
     32  CZ        38.1500   58.4550  -47.7170 C.cat 250  ARG250      0.5346
     33  NH1       38.4950   57.9350  -46.5370 N.pl3 250  ARG250      0.1354
     34  NH2       36.8680   58.4580  -48.0510 N.pl3 250  ARG250      0.1354
     35  N         37.2690   65.3870  -48.8230 N.3   254  ASN254     -0.1240
     36  CA        36.6460   64.2430  -49.4810 C.3   254  ASN254      0.1653
     37  C         36.4110   63.0920  -48.5290 C.2   254  ASN254      0.2266
     38  O         35.4360   62.3490  -48.6750 O.2   254  ASN254     -0.2867
     39  CB        37.4850   63.8140  -50.6710 C.3   254  ASN254      0.1155
     40  CG        37.6410   64.9420  -51.6690 C.2   254  ASN254      0.2627
     41  OD1       38.6130   65.6970  -51.6260 O.2   254  ASN254     -0.2716
     42  ND2       36.6550   65.0970  -52.5380 N.am  254  ASN254     -0.0877
     43  N         33.3680   64.0450  -46.7470 N.3   257  ALA257     -0.1231
     44  CA        32.2230   63.8880  -47.6390 C.3   257  ALA257      0.1694
     45  C         31.8230   62.4190  -47.7350 C.2   257  ALA257      0.2592
     46  O         30.6380   62.1060  -47.8280 O.2   257  ALA257     -0.2718
     47  CB        32.5500   64.4320  -49.0220 C.3   257  ALA257      0.0304
     48  N         32.8110   61.5200  -47.7150 N.am  258  ASN258     -0.1974
     49  CA        32.5230   60.0860  -47.7770 C.3   258  ASN258      0.1688
     50  C         31.8220   59.6490  -46.4880 C.2   258  ASN258      0.2292
     51  O         30.9110   58.8110  -46.5110 O.2   258  ASN258     -0.2864
     52  CB        33.8150   59.2670  -47.9660 C.3   258  ASN258      0.1181
     53  CG        34.1350   58.9940  -49.4370 C.2   258  ASN258      0.2629
     54  OD1       33.9770   57.8790  -49.9310 O.2   258  ASN258     -0.2716
     55  ND2       34.6020   60.0160  -50.1360 N.am  258  ASN258     -0.0877
     56  N         28.4350   60.1410  -46.8910 N.3   261  LYS261     -0.1245
     57  CA        27.7660   59.0790  -47.6690 C.3   261  LYS261      0.1561
     58  C         27.8110   57.7140  -47.0620 C.2   261  LYS261      0.2260
     59  O         27.2020   56.7340  -47.5590 O.2   261  LYS261     -0.2867
     60  CB        28.2150   59.1520  -49.1050 C.3   261  LYS261      0.0271
     61  CG        27.5070   60.1520  -50.0050 C.3   261  LYS261      0.0035
     62  CD        27.5090   59.6080  -51.4440 C.3   261  LYS261      0.0206
     63  CE        26.6340   58.3490  -51.5580 C.3   261  LYS261      0.1093
     64  NZ        26.5480   57.8340  -52.9420 N.3   261  LYS261     -0.1314
     65  N         30.8000   56.2100  -45.5860 N.3   263  GLY263     -0.1225
     66  CA        32.1530   55.7160  -45.3990 C.3   263  GLY263      0.1811
     67  C         32.8340   56.5230  -44.3020 C.2   263  GLY263      0.2280
     68  O         32.2690   56.7080  -43.2220 O.2   263  GLY263     -0.2866
     69  N         40.2910   62.5180  -56.5420 N.3   283  ASN283     -0.1225
     70  CA        39.6590   61.3480  -57.1330 C.3   283  ASN283      0.1785
     71  C         39.8240   61.1480  -58.6460 C.2   283  ASN283      0.2597
     72  O         40.4260   61.9800  -59.3360 O.2   283  ASN283     -0.2718
     73  CB        38.1790   61.2860  -56.7020 C.3   283  ASN283      0.1169
     74  CG        37.3050   62.3070  -57.4130 C.2   283  ASN283      0.2627
     75  OD1       37.6800   62.8560  -58.4460 O.2   283  ASN283     -0.2716
     76  ND2       36.1160   62.5430  -56.8630 N.am  283  ASN283     -0.0877
     77  N         39.2890   60.0390  -59.1600 N.am  284  ILE284     -0.1966
     78  CA        39.4330   59.7000  -60.5740 C.3   284  ILE284      0.1727
     79  C         38.8700   60.7430  -61.5400 C.2   284  ILE284      0.2616
     80  O         39.3850   60.9240  -62.6430 O.2   284  ILE284     -0.2715
     81  CB        38.7910   58.3060  -60.9050 C.3   284  ILE284      0.0290
     82  CG1       37.3090   58.2910  -60.5350 C.3   284  ILE284      0.0022
     83  CG2       39.5240   57.1920  -60.1370 C.3   284  ILE284      0.0023
     84  CD1       36.5750   57.0460  -61.0550 C.3   284  ILE284      0.0001
     85  N         37.8180   61.4410  -61.1320 N.am  285  HIS285     -0.1973
     86  CA        37.2370   62.4390  -62.0150 C.3   285  HIS285      0.1656
     87  C         38.1710   63.6370  -62.1800 C.2   285  HIS285      0.2291
     88  O         38.2640   64.2300  -63.2580 O.2   285  HIS285     -0.2864
     89  CB        35.8970   62.8520  -61.4440 C.3   285  HIS285      0.0771
     90  CG        35.0390   61.6760  -61.1200 C.ar  285  HIS285      0.0820
     91  ND1       34.6320   60.7860  -62.0870 N.ar  285  HIS285     -0.2267
     92  CD2       34.6360   61.1610  -59.9360 C.ar  285  HIS285      0.1154
     93  CE1       34.0160   59.7660  -61.5120 C.ar  285  HIS285      0.1986
     94  NE2       34.0070   59.9660  -60.2080 N.ar  285  HIS285     -0.2212
     95  N         42.1480   54.5130  -49.2800 N.3   345  SER345     -0.1202
     96  CA        41.5040   55.6350  -50.0060 C.3   345  SER345      0.2020
     97  C         40.0430   55.5980  -49.7800 C.2   345  SER345      0.2619
     98  O         39.4860   55.1590  -48.7260 O.2   345  SER345     -0.2717
     99  CB        42.0470   55.6390  -51.4040 C.3   345  SER345      0.2103
    100  OG        41.8440   54.3820  -52.0460 O.3   345  SER345     -0.2182
    101  N         39.1700   55.7670  -50.8060 N.am  346  SER346     -0.1937
    102  CA        37.7560   55.4390  -50.4420 C.3   346  SER346      0.2055
    103  C         37.5580   53.9060  -50.5690 C.2   346  SER346      0.2643
    104  O         37.0250   53.2670  -49.6750 O.2   346  SER346     -0.2714
    105  CB        36.7900   56.2010  -51.3150 C.3   346  SER346      0.2130
    106  OG        36.9150   57.6070  -51.0800 O.3   346  SER346     -0.2179
    107  N         37.8610   53.4260  -51.8040 N.am  347  ASP347     -0.1957
    108  CA        37.6130   52.1050  -52.3160 C.3   347  ASP347      0.1840
    109  C         38.8270   51.2180  -52.1100 C.2   347  ASP347      0.2623
    110  O         38.7600   49.9960  -52.0680 O.2   347  ASP347     -0.2715
    111  CB        37.1580   52.0190  -53.7440 C.3   347  ASP347      0.1450
    112  CG        35.7390   52.2730  -54.1030 C.2   347  ASP347      0.3671
    113  OD1       35.4690   52.5280  -55.3150 O.co2 347  ASP347     -0.2456
    114  OD2       34.7730   52.0430  -53.3250 O.co2 347  ASP347     -0.2456
    115  N         39.9840   51.8850  -52.0090 N.am  348  GLY348     -0.1940
    116  CA        41.2160   51.1600  -51.8610 C.3   348  GLY348      0.2014
    117  C         41.7790   50.4790  -53.0650 C.2   348  GLY348      0.2639
    118  O         42.5740   49.5320  -52.9310 O.2   348  GLY348     -0.2714
    119  N         41.3290   50.8580  -54.2660 N.am  349  TRP349     -0.1959
    120  CA        41.8410   50.2030  -55.4370 C.3   349  TRP349      0.1771
    121  C         42.6860   51.0510  -56.3440 C.2   349  TRP349      0.2620
    122  O         43.3510   50.5990  -57.2990 O.2   349  TRP349     -0.2715
    123  CB        40.8440   49.3130  -56.1370 C.3   349  TRP349      0.0590
    124  CG        39.5230   49.8740  -56.5090 C.ar  349  TRP349      0.0006
    125  CD1       39.1880   51.1370  -56.9200 C.ar  349  TRP349      0.0946
    126  CD2       38.2690   49.1450  -56.4410 C.ar  349  TRP349      0.0152
    127  NE1       37.8220   51.2280  -57.0960 N.ar  349  TRP349     -0.2442
    128  CE2       37.2410   50.0170  -56.8270 C.ar  349  TRP349      0.0810
    129  CE3       37.9240   47.8250  -56.1340 C.ar  349  TRP349      0.0012
    130  CZ2       35.8950   49.6340  -56.9050 C.ar  349  TRP349      0.0191
    131  CZ3       36.5910   47.4400  -56.2050 C.ar  349  TRP349      0.0001
    132  CH2       35.5880   48.3380  -56.5930 C.ar  349  TRP349      0.0015
    133  N         42.4150   52.3710  -56.3080 N.am  350  ASP350     -0.1957
    134  CA        43.0450   53.3060  -57.2630 C.3   350  ASP350      0.1840
    135  C         44.2430   54.0160  -56.7060 C.2   350  ASP350      0.2621
    136  O         45.4320   53.6480  -56.8630 O.2   350  ASP350     -0.2715
    137  CB        41.9920   54.1880  -57.8940 C.3   350  ASP350      0.1450
    138  CG        40.9480   53.3930  -58.7470 C.2   350  ASP350      0.3671
    139  OD1       41.3660   53.0550  -59.8320 O.co2 350  ASP350     -0.2456
    140  OD2       39.7720   53.8040  -58.4340 O.co2 350  ASP350     -0.2456
    141  N         43.9860   54.9610  -55.7780 N.am  351  ARG351     -0.1977
    142  CA        45.0470   55.7360  -55.1550 C.3   351  ARG351      0.1597
    143  C         45.8790   54.8490  -54.2640 C.2   351  ARG351      0.2287
    144  O         47.0880   55.0130  -54.1200 O.2   351  ARG351     -0.2864
    145  CB        44.5490   56.9500  -54.4040 C.3   351  ARG351      0.0334
    146  CG        43.9480   58.0260  -55.2950 C.3   351  ARG351      0.0492
    147  CD        43.2280   59.0900  -54.4530 C.3   351  ARG351      0.2205
    148  NE        41.9490   58.5010  -54.0030 N.pl3 351  ARG351     -0.0865
    149  CZ        40.8540   59.1580  -53.6860 C.cat 351  ARG351      0.5346
    150  NH1       40.8150   60.4830  -53.7370 N.pl3 351  ARG351      0.1354
    151  NH2       39.7650   58.4910  -53.3090 N.pl3 351  ARG351      0.1354
    152  N         40.5700   48.1710  -61.1770 N.3   387  ARG387     -0.1245
    153  CA        39.5860   47.9150  -62.2460 C.3   387  ARG387      0.1563
    154  C         40.0430   48.3920  -63.5920 C.2   387  ARG387      0.2260
    155  O         39.6890   49.4450  -64.1620 O.2   387  ARG387     -0.2867
    156  CB        38.2200   48.3580  -61.8100 C.3   387  ARG387      0.0307
    157  CG        37.6170   47.8810  -60.5310 C.3   387  ARG387      0.0489
    158  CD        36.2120   48.3740  -60.3210 C.3   387  ARG387      0.2205
    159  NE        36.0250   49.8030  -60.2930 N.pl3 387  ARG387     -0.0865
    160  CZ        34.8270   50.3670  -60.0620 C.cat 387  ARG387      0.5346
    161  NH1       33.7590   49.6120  -59.8700 N.pl3 387  ARG387      0.1354
    162  NH2       34.7180   51.6820  -60.0250 N.pl3 387  ARG387      0.1354
    163  N         38.5280   51.3040  -66.1280 N.3   391  ARG391     -0.1245
    164  CA        39.2820   52.5580  -66.1390 C.3   391  ARG391      0.1563
    165  C         39.7900   52.8830  -67.5390 C.2   391  ARG391      0.2260
    166  O         40.0120   54.0570  -67.8850 O.2   391  ARG391     -0.2867
    167  CB        40.4530   52.4700  -65.1580 C.3   391  ARG391      0.0307
    168  CG        40.0630   52.3770  -63.6940 C.3   391  ARG391      0.0489
    169  CD        39.6910   53.7550  -63.1250 C.3   391  ARG391      0.2205
    170  NE        39.2260   53.6160  -61.7540 N.pl3 391  ARG391     -0.0865
    171  CZ        37.9480   53.4970  -61.4050 C.cat 391  ARG391      0.5346
    172  NH1       36.9960   53.5200  -62.3330 N.pl3 391  ARG391      0.1354
    173  NH2       37.6300   53.3030  -60.1360 N.pl3 391  ARG391      0.1354
    174  N         33.9220   56.3980  -65.4050 N.3   403  ASP403     -0.1239
    175  CA        34.8220   55.4720  -64.7140 C.3   403  ASP403      0.1674
    176  C         36.2040   55.4480  -65.3640 C.2   403  ASP403      0.2266
    177  O         37.1320   54.8440  -64.8430 O.2   403  ASP403     -0.2867
    178  CB        34.2570   54.0460  -64.7150 C.3   403  ASP403      0.1410
    179  CG        33.4310   53.7540  -63.4860 C.2   403  ASP403      0.3668
    180  OD1       32.4270   53.0140  -63.6060 O.co2 403  ASP403     -0.2456
    181  OD2       33.7740   54.2620  -62.4000 O.co2 403  ASP403     -0.2456
@<TRIPOS>BOND
     1   166   165    2
     2   165   164    1
     3   164   163    1
     4   164   167    1
     5   174   175    1
     6   176   177    2
     7   176   175    1
     8   167   168    1
     9   178   175    1
    10   178   179    1
    11   155   154    2
    12   168   169    1
    13   180   179   ar
    14   154   153    1
    15   179   181   ar
    16    88    87    2
    17   169   170    1
    18    80    79    2
    19   172   171    1
    20   153   156    1
    21   153   152    1
    22    87    86    1
    23    91    93   ar
    24    91    90   ar
    25    86    89    1
    26    86    85    1
    27   156   157    1
    28   170   171    2
    29    79    85   am
    30    79    78    1
    31    93    94   ar
    32    89    90    1
    33   171   173    1
    34    90    92   ar
    35    84    82    1
    36    81    78    1
    37    81    82    1
    38    81    83    1
    39    78    77    1
    40   157   158    1
    41   158   159    1
    42   159   160    2
    43    94    92   ar
    44   160   162    1
    45   160   161    1
    46   139   138   ar
    47    72    71    2
    48    77    71   am
    49   138   140   ar
    50   138   137    1
    51    71    70    1
    52    75    74    2
    53   137   134    1
    54    74    76   am
    55    74    73    1
    56   122   121    2
    57   134   135    1
    58   134   133    1
    59    70    73    1
    60    70    69    1
    61   127   125   ar
    62   127   128   ar
    63   125   124   ar
    64   130   128   ar
    65   130   132   ar
    66   136   135    2
    67   128   126   ar
    68   135   141   am
    69   132   131   ar
    70   124   126   ar
    71   124   123    1
    72   126   129   ar
    73   121   133   am
    74   121   120    1
    75   131   129   ar
    76   123   120    1
    77   141   142    1
    78   120   119    1
    79   113   112   ar
    80   146   147    1
    81   146   145    1
    82   142   145    1
    83   142   143    1
    84   147   148    1
    85   119   117   am
    86   143   144    2
    87   112   111    1
    88   112   114   ar
    89   148   149    2
    90   111   108    1
    91   150   149    1
    92   149   151    1
    93   117   118    2
    94   117   116    1
    95    64    63    1
    96    42    40   am
    97   108   109    1
    98   108   107    1
    99   109   110    2
   100   109   115   am
   101   100    99    1
   102   115   116    1
   103   107   103   am
   104    40    41    2
   105    40    39    1
   106    63    62    1
   107    62    61    1
   108    99    96    1
   109   105   106    1
   110   105   102    1
   111   101   102    1
   112   101    97   am
   113    39    36    1
   114   103   102    1
   115   103   104    2
   116    29    30    1
   117    29    28    1
   118    55    53   am
   119    96    97    1
   120    96    95    1
   121    61    60    1
   122    54    53    2
   123    25    28    1
   124    25    24    1
   125    25    26    1
   126    30    31    1
   127    97    98    2
   128     6     5    1
   129    36    35    1
   130    36    37    1
   131    53    52    1
   132    60    57    1
   133    26    27    2
   134     4     3    2
   135    47    44    1
   136    14    13    2
   137     3     2    1
   138    38    37    2
   139    31    32    2
   140     5     2    1
   141    34    32    1
   142    52    49    1
   143     2     1    1
   144    46    45    2
   145    13    12    1
   146    13    15   am
   147    49    48    1
   148    49    50    1
   149    45    48   am
   150    45    44    1
   151    32    33    1
   152    57    58    1
   153    57    56    1
   154    44    43    1
   155    59    58    2
   156    12    11    1
   157     7     8    1
   158    23    22    1
   159    11     8    1
   160    51    50    2
   161     8     9    1
   162    22    21    1
   163    65    66    1
   164    10     9    2
   165    66    67    1
   166    21    20    1
   167    67    68    2
   168    20    17    1
   169    17    16    1
   170    17    18    1
   171    18    19    2
