@<TRIPOS>MOLECULE
tmp/1ztfA00.pdb
 120 114 0 0 0
SMALL
GASTEIGER

@<TRIPOS>ATOM
      1  N         38.5620   21.4750    1.7610 N.3    50  ILE50      -0.1231
      2  CA        38.1330   20.7050    2.9200 C.3    50  ILE50       0.1692
      3  C         36.7780   19.9850    2.7320 C.2    50  ILE50       0.2592
      4  O         36.6190   18.8380    3.1360 O.2    50  ILE50      -0.2718
      5  CB        38.0270   21.5890    4.1250 C.3    50  ILE50       0.0266
      6  CG1       39.3860   22.0860    4.5730 C.3    50  ILE50       0.0019
      7  CG2       37.2420   20.9930    5.2180 C.3    50  ILE50       0.0020
      8  CD1       39.1430   23.1560    5.5960 C.3    50  ILE50       0.0001
      9  N         35.7910   20.7070    2.2270 N.am   51  SER51      -0.1952
     10  CA        34.4420   20.1680    1.9640 C.3    51  SER51       0.1924
     11  C         33.9210   20.8470    0.7250 C.2    51  SER51       0.2314
     12  O         34.0940   22.0660    0.5300 O.2    51  SER51      -0.2863
     13  CB        33.5110   20.4400    3.0960 C.3    51  SER51       0.2116
     14  OG        32.1960   20.3880    2.6270 O.3    51  SER51      -0.2180
     15  N         34.2840   24.6550    1.4760 N.3    58  VAL58      -0.1245
     16  CA        35.1410   25.0920    2.5620 C.3    58  VAL58       0.1561
     17  C         36.5580   24.7750    2.1690 C.2    58  VAL58       0.2260
     18  O         36.8210   23.6420    1.6920 O.2    58  VAL58      -0.2867
     19  CB        34.7540   24.3880    3.9780 C.3    58  VAL58       0.0252
     20  CG1       35.6380   24.9220    5.1460 C.3    58  VAL58       0.0019
     21  CG2       33.2610   24.5510    4.3190 C.3    58  VAL58       0.0019
     22  N         39.3350   27.8630    8.6810 N.3    72  ALA72      -0.1245
     23  CA        38.4190   27.3260    7.6940 C.3    72  ALA72       0.1562
     24  C         37.7160   28.4840    7.0120 C.2    72  ALA72       0.2260
     25  O         37.2470   29.3780    7.6270 O.2    72  ALA72      -0.2867
     26  CB        37.4850   26.3530    8.2510 C.3    72  ALA72       0.0290
     27  N         34.8490   29.3540    4.7460 N.3    74  LYS74      -0.1245
     28  CA        33.5540   28.8340    4.2370 C.3    74  LYS74       0.1561
     29  C         32.9300   29.8280    3.2740 C.2    74  LYS74       0.2260
     30  O         32.7130   30.9760    3.6450 O.2    74  LYS74      -0.2867
     31  CB        32.5960   28.5950    5.3840 C.3    74  LYS74       0.0271
     32  CG        31.1450   28.0310    4.9490 C.3    74  LYS74       0.0035
     33  CD        30.4630   27.6550    6.2580 C.3    74  LYS74       0.0206
     34  CE        29.4870   26.4260    6.1550 C.3    74  LYS74       0.1093
     35  NZ        28.7760   26.0850    7.4580 N.3    74  LYS74      -0.1314
     36  N         33.8180   26.2980   16.4240 N.3   127  PRO127     -0.2116
     37  CA        34.9580   27.0850   15.9320 C.3   127  PRO127      0.1372
     38  C         34.8870   28.5390   16.3680 C.2   127  PRO127      0.2244
     39  O         33.8600   29.1980   16.2460 O.2   127  PRO127     -0.2868
     40  CB        34.8460   26.9280   14.4390 C.3   127  PRO127      0.0268
     41  CG        34.1130   25.5180   14.2770 C.3   127  PRO127      0.0207
     42  CD        33.1060   25.6660   15.3070 C.3   127  PRO127      0.0892
     43  N         37.9630   29.4130   12.9080 N.3   138  GLU138     -0.1231
     44  CA        38.9960   28.5180   13.4060 C.3   138  GLU138      0.1699
     45  C         38.9430   27.1580   12.7230 C.2   138  GLU138      0.2592
     46  O         37.8750   26.5680   12.6540 O.2   138  GLU138     -0.2718
     47  CB        38.8050   28.3930   14.9080 C.3   138  GLU138      0.0402
     48  CG        39.8370   27.5050   15.6430 C.3   138  GLU138      0.1161
     49  CD        39.4350   27.2040   17.1060 C.2   138  GLU138      0.3649
     50  OE1       38.3180   27.6290   17.6200 O.co2 138  GLU138     -0.2457
     51  OE2       40.2630   26.5040   17.7450 O.co2 138  GLU138     -0.2457
     52  N         40.1070   26.6900   12.2450 N.am  139  PHE139     -0.1962
     53  CA        40.2770   25.3500   11.6920 C.3   139  PHE139      0.1771
     54  C         40.2460   24.3350   12.8360 C.2   139  PHE139      0.2619
     55  O         40.9270   24.5070   13.8540 O.2   139  PHE139     -0.2715
     56  CB        41.5090   25.3010   10.8610 C.3   139  PHE139      0.0574
     57  CG        41.7810   23.9550   10.2250 C.ar  139  PHE139     -0.0200
     58  CD1       42.6760   23.1080   10.7740 C.ar  139  PHE139     -0.0042
     59  CD2       41.0510   23.5140    9.1060 C.ar  139  PHE139     -0.0042
     60  CE1       42.8750   21.8900   10.2010 C.ar  139  PHE139     -0.0003
     61  CE2       41.3040   22.3500    8.5330 C.ar  139  PHE139     -0.0003
     62  CZ        42.2120   21.5150    9.0980 C.ar  139  PHE139     -0.0000
     63  N         39.3240   23.3460   12.7490 N.am  140  ILE140     -0.1977
     64  CA        39.2780   22.2970   13.8110 C.3   140  ILE140      0.1596
     65  C         40.0140   21.0970   13.1930 C.2   140  ILE140      0.2287
     66  O         39.5280   20.4670   12.2640 O.2   140  ILE140     -0.2864
     67  CB        37.8560   21.9480   14.2460 C.3   140  ILE140      0.0276
     68  CG1       37.1030   23.2060   14.7800 C.3   140  ILE140      0.0022
     69  CG2       37.8660   20.8430   15.4150 C.3   140  ILE140      0.0022
     70  CD1       37.8920   23.9610   15.8700 C.3   140  ILE140      0.0001
     71  N         41.6210   18.1460    8.7220 N.3   146  PRO146     -0.2116
     72  CA        40.4740   18.3920    9.5780 C.3   146  PRO146      0.1372
     73  C         40.1720   17.2490   10.5180 C.2   146  PRO146      0.2244
     74  O         40.4830   16.0410   10.2230 O.2   146  PRO146     -0.2868
     75  CB        39.3720   18.6470    8.5820 C.3   146  PRO146      0.0268
     76  CG        39.9380   18.5440    7.1890 C.3   146  PRO146      0.0207
     77  CD        41.2450   17.9180    7.3030 C.3   146  PRO146      0.0892
     78  N         34.8230   13.7000   11.9300 N.3   149  THR149     -0.1218
     79  CA        33.4940   13.6410   12.4750 C.3   149  THR149      0.1862
     80  C         33.1740   12.3300   13.1670 C.2   149  THR149      0.2287
     81  O         33.9010   11.3210   13.0950 O.2   149  THR149     -0.2866
     82  CB        32.4730   13.7760   11.4040 C.3   149  THR149      0.1770
     83  OG1       32.6970   12.7260   10.4620 O.3   149  THR149     -0.2211
     84  CG2       32.5970   15.1630   10.7260 C.3   149  THR149      0.0375
     85  N         27.0270   13.6620   11.4670 N.3   190  TYR190     -0.1227
     86  CA        27.6570   14.2940   10.3030 C.3   190  TYR190      0.1736
     87  C         28.2290   15.7070   10.5180 C.2   190  TYR190      0.2595
     88  O         29.0580   16.1540    9.7380 O.2   190  TYR190     -0.2718
     89  CB        26.6720   14.3330    9.1680 C.3   190  TYR190      0.0548
     90  CG        26.3480   12.9300    8.6600 C.ar  190  TYR190     -0.0200
     91  CD1       25.3090   12.1800    9.2260 C.ar  190  TYR190     -0.0009
     92  CD2       27.0930   12.3670    7.6230 C.ar  190  TYR190     -0.0009
     93  CE1       24.9930   10.8960    8.7640 C.ar  190  TYR190      0.0417
     94  CE2       26.7890   11.0570    7.1440 C.ar  190  TYR190      0.0417
     95  CZ        25.7360   10.3420    7.7360 C.ar  190  TYR190      0.1957
     96  OH        25.4450    9.0860    7.2970 O.3   190  TYR190     -0.2866
     97  N         27.7720   16.4130   11.5520 N.am  191  ASN191     -0.1974
     98  CA        28.2400   17.7860   11.7850 C.3   191  ASN191      0.1688
     99  C         28.7920   17.9910   13.2000 C.2   191  ASN191      0.2292
    100  O         28.8020   19.0960   13.7760 O.2   191  ASN191     -0.2864
    101  CB        27.1450   18.8010   11.4610 C.3   191  ASN191      0.1181
    102  CG        25.8370   18.5060   12.1140 C.2   191  ASN191      0.2629
    103  OD1       25.7460   17.8780   13.1760 O.2   191  ASN191     -0.2716
    104  ND2       24.7760   18.9110   11.4430 N.am  191  ASN191     -0.0877
    105  N         30.0860   21.9410   14.3890 N.3   200  ILE200     -0.1231
    106  CA        30.8220   22.7150   13.3690 C.3   200  ILE200      0.1692
    107  C         30.0010   23.3300   12.2270 C.2   200  ILE200      0.2592
    108  O         30.5880   24.0250   11.3810 O.2   200  ILE200     -0.2718
    109  CB        31.9280   21.9410   12.6610 C.3   200  ILE200      0.0266
    110  CG1       31.3680   20.5770   12.2340 C.3   200  ILE200      0.0019
    111  CG2       33.1240   21.8550   13.5280 C.3   200  ILE200      0.0020
    112  CD1       31.2880   20.3430   10.7350 C.3   200  ILE200      0.0001
    113  N         28.6910   23.1350   12.1770 N.am  201  ASP201     -0.1974
    114  CA        27.9350   23.9580   11.2220 C.3   201  ASP201      0.1709
    115  C         26.7860   24.7370   11.7420 C.2   201  ASP201      0.2293
    116  O         25.5790   24.4080   11.5230 O.2   201  ASP201     -0.2864
    117  CB        27.3600   23.2380   10.0440 C.3   201  ASP201      0.1436
    118  CG        26.3200   24.1170    9.3360 C.2   201  ASP201      0.3671
    119  OD1       26.6600   25.2870    8.9260 O.co2 201  ASP201     -0.2456
    120  OD2       25.1450   23.6680    9.2640 O.co2 201  ASP201     -0.2456
@<TRIPOS>BOND
     1    12    11    2
     2    11    10    1
     3    15    16    1
     4    18    17    2
     5     1     2    1
     6    10     9    1
     7    10    13    1
     8    17    16    1
     9     9     3   am
    10    16    19    1
    11    14    13    1
    12     3     2    1
    13     3     4    2
    14     2     5    1
    15    29    30    2
    16    29    28    1
    17    19    21    1
    18    19    20    1
    19     5     6    1
    20     5     7    1
    21    28    27    1
    22    28    31    1
    23     6     8    1
    24    32    31    1
    25    32    33    1
    26    34    33    1
    27    34    35    1
    28    24    25    2
    29    24    23    1
    30    94    92   ar
    31    94    95   ar
    32    76    77    1
    33    76    75    1
    34    96    95    1
    35    77    71    1
    36    92    90   ar
    37    23    26    1
    38    23    22    1
    39    95    93   ar
    40    61    62   ar
    41    61    59   ar
    42    75    72    1
    43    90    89    1
    44    90    91   ar
    45    71    72    1
    46    93    91   ar
    47   119   118   ar
    48    62    60   ar
    49    59    57   ar
    50    89    86    1
    51   120   118   ar
    52   118   117    1
    53    72    73    1
    54    88    87    2
    55   117   114    1
    56    60    58   ar
    57    74    73    2
    58    57    58   ar
    59    57    56    1
    60    86    87    1
    61    86    85    1
    62    83    82    1
    63    87    97   am
    64    84    82    1
    65   112   110    1
    66    56    53    1
    67   114   115    1
    68   114   113    1
    69   108   107    2
    70    82    79    1
    71   104   102   am
    72   101    98    1
    73   101   102    1
    74   116   115    2
    75    97    98    1
    76    53    52    1
    77    53    54    1
    78    98    99    1
    79    78    79    1
    80   102   103    2
    81   113   107   am
    82   107   106    1
    83   110   109    1
    84    52    45   am
    85    66    65    2
    86    79    80    1
    87    46    45    2
    88   109   106    1
    89   109   111    1
    90    45    44    1
    91    63    54   am
    92    63    64    1
    93    54    55    2
    94    43    44    1
    95    81    80    2
    96    65    64    1
    97    99   100    2
    98   106   105    1
    99    44    47    1
   100    64    67    1
   101    67    68    1
   102    67    69    1
   103    41    40    1
   104    41    42    1
   105    40    37    1
   106    68    70    1
   107    47    48    1
   108    42    36    1
   109    48    49    1
   110    37    38    1
   111    37    36    1
   112    39    38    2
   113    49    50   ar
   114    49    51   ar
