@<TRIPOS>MOLECULE
tmp/1zthA00.pdb
 173 163 0 0 0
SMALL
GASTEIGER

@<TRIPOS>ATOM
      1  N         24.7690   -3.1930   56.5630 N.3    52  ILE52      -0.1231
      2  CA        23.7450   -3.7600   55.6910 C.3    52  ILE52       0.1692
      3  C         23.1910   -2.6990   54.7040 C.2    52  ILE52       0.2592
      4  O         22.9580   -3.0140   53.5620 O.2    52  ILE52      -0.2718
      5  CB        22.5510   -4.3940   56.4870 C.3    52  ILE52       0.0266
      6  CG1       23.0290   -5.5840   57.3210 C.3    52  ILE52       0.0019
      7  CG2       21.4600   -4.8990   55.5410 C.3    52  ILE52       0.0020
      8  CD1       24.1380   -6.3770   56.7150 C.3    52  ILE52       0.0001
      9  N         22.9800   -1.4640   55.1500 N.am   53  SER53      -0.1952
     10  CA        22.3990   -0.4520   54.2960 C.3    53  SER53       0.1924
     11  C         22.7570    0.9140   54.8640 C.2    53  SER53       0.2314
     12  O         22.7970    1.0780   56.0660 O.2    53  SER53      -0.2863
     13  CB        20.8780   -0.6460   54.2380 C.3    53  SER53       0.2116
     14  OG        20.2570    0.4070   53.5050 O.3    53  SER53      -0.2180
     15  N         21.5860    4.8720   54.3500 N.3    55  GLY55      -0.1225
     16  CA        20.5840    5.6560   53.6820 C.3    55  GLY55       0.1811
     17  C         20.5180    7.0930   54.1080 C.2    55  GLY55       0.2280
     18  O         21.3200    7.5830   54.9300 O.2    55  GLY55      -0.2866
     19  N         17.7900    8.3780   55.6470 N.3    57  GLU57      -0.1231
     20  CA        17.1400    8.4720   56.9450 C.3    57  GLU57       0.1699
     21  C         17.7130    7.5120   57.9670 C.2    57  GLU57       0.2592
     22  O         17.7690    7.8350   59.1490 O.2    57  GLU57      -0.2718
     23  CB        15.6390    8.2280   56.8120 C.3    57  GLU57       0.0402
     24  CG        14.9450    9.3180   56.0030 C.3    57  GLU57       0.1161
     25  CD        13.4340    9.1110   55.8740 C.2    57  GLU57       0.3649
     26  OE1       12.8230    8.5200   56.7900 O.co2  57  GLU57      -0.2457
     27  OE2       12.8560    9.5760   54.8590 O.co2  57  GLU57      -0.2457
     28  N         18.1650    6.3540   57.5010 N.am   58  ALA58      -0.1980
     29  CA        18.5070    5.2700   58.3880 C.3    58  ALA58       0.1597
     30  C         19.7350    4.4980   57.9170 C.2    58  ALA58       0.2287
     31  O         20.0560    4.5040   56.7490 O.2    58  ALA58      -0.2864
     32  CB        17.2640    4.2980   58.5500 C.3    58  ALA58       0.0319
     33  N         21.5360    0.5180   58.6130 N.3    60  VAL60      -0.1245
     34  CA        21.1530   -0.7560   59.1370 C.3    60  VAL60       0.1561
     35  C         22.4310   -1.5780   59.2270 C.2    60  VAL60       0.2260
     36  O         23.2270   -1.5620   58.3110 O.2    60  VAL60      -0.2867
     37  CB        20.1500   -1.5120   58.2310 C.3    60  VAL60       0.0252
     38  CG1       19.8350   -2.8900   58.8110 C.3    60  VAL60       0.0019
     39  CG2       18.8640   -0.7100   58.0780 C.3    60  VAL60       0.0019
     40  N         19.2150   -7.3390   63.0490 N.3    74  ALA74      -0.1245
     41  CA        19.3790   -6.1210   62.2170 C.3    74  ALA74       0.1562
     42  C         19.3040   -4.9880   63.2190 C.2    74  ALA74       0.2260
     43  O         18.3400   -4.9380   63.9980 O.2    74  ALA74      -0.2867
     44  CB        18.2040   -5.9800   61.2830 C.3    74  ALA74       0.0290
     45  N         18.7670   -1.2160   63.2610 N.3    76  LYS76      -0.1245
     46  CA        18.4340   -0.0980   62.3720 C.3    76  LYS76       0.1561
     47  C         18.6020    1.1670   63.2040 C.2    76  LYS76       0.2260
     48  O         18.0860    1.2430   64.3290 O.2    76  LYS76      -0.2867
     49  CB        16.9910   -0.2050   61.8940 C.3    76  LYS76       0.0271
     50  CG        16.5720    0.9090   60.9380 C.3    76  LYS76       0.0035
     51  CD        15.3230    0.5380   60.0690 C.3    76  LYS76       0.0206
     52  CE        14.8690    1.7670   59.2660 C.3    76  LYS76       0.1093
     53  NZ        13.4520    1.6750   58.6880 N.3    76  LYS76      -0.1314
     54  N         18.2710    5.4380   63.1940 N.3    78  TYR78      -0.1241
     55  CA        17.7780    6.6210   62.4760 C.3    78  TYR78       0.1605
     56  C         18.7710    7.7170   62.6940 C.2    78  TYR78       0.2264
     57  O         19.2790    7.8540   63.7880 O.2    78  TYR78      -0.2867
     58  CB        16.4080    7.0680   62.9870 C.3    78  TYR78       0.0534
     59  CG        15.3480    6.2190   62.3630 C.ar   78  TYR78      -0.0201
     60  CD1       14.9720    6.4510   61.0470 C.ar   78  TYR78      -0.0009
     61  CD2       14.8150    5.1150   63.0310 C.ar   78  TYR78      -0.0009
     62  CE1       14.0360    5.6500   60.4040 C.ar   78  TYR78       0.0417
     63  CE2       13.8490    4.2880   62.3900 C.ar   78  TYR78       0.0417
     64  CZ        13.4730    4.5800   61.0760 C.ar   78  TYR78       0.1957
     65  OH        12.5210    3.8310   60.4060 O.3    78  TYR78      -0.2866
     66  N          8.2400    3.0630   64.8950 N.3   103  GLU103     -0.1245
     67  CA         8.4940    1.8940   64.0490 C.3   103  GLU103      0.1567
     68  C          8.3920    0.6840   64.9870 C.2   103  GLU103      0.2260
     69  O          7.8130   -0.3120   64.6620 O.2   103  GLU103     -0.2867
     70  CB         9.9010    1.9660   63.4040 C.3   103  GLU103      0.0388
     71  CG        10.2210    0.6980   62.6140 C.3   103  GLU103      0.1160
     72  CD        11.2950    0.8820   61.5120 C.2   103  GLU103      0.3649
     73  OE1       12.2510    1.6530   61.7400 O.co2 103  GLU103     -0.2457
     74  OE2       11.1750    0.2150   60.4390 O.co2 103  GLU103     -0.2457
     75  N          9.9270   -8.6350   60.8680 N.3   118  PRO118     -0.2116
     76  CA        11.0120   -9.1720   61.7710 C.3   118  PRO118      0.1372
     77  C         10.5860   -8.9050   63.2450 C.2   118  PRO118      0.2244
     78  O         10.0190   -7.9150   63.6420 O.2   118  PRO118     -0.2868
     79  CB        12.1820   -8.1900   61.5110 C.3   118  PRO118      0.0268
     80  CG        11.9370   -7.6710   60.1520 C.3   118  PRO118      0.0207
     81  CD        10.4330   -7.5360   60.0740 C.3   118  PRO118      0.0892
     82  N         14.7910   -8.8950   64.5600 N.3   129  GLU129     -0.1231
     83  CA        15.2530  -10.1450   63.9630 C.3   129  GLU129      0.1699
     84  C         15.9790   -9.8850   62.6250 C.2   129  GLU129      0.2592
     85  O         15.5060   -9.1400   61.7630 O.2   129  GLU129     -0.2718
     86  CB        14.0200  -11.0680   63.7790 C.3   129  GLU129      0.0402
     87  CG        14.2910  -12.5290   63.4940 C.3   129  GLU129      0.1161
     88  CD        13.0410  -13.2700   62.9690 C.2   129  GLU129      0.3649
     89  OE1       13.1620  -14.4450   62.5440 O.co2 129  GLU129     -0.2457
     90  OE2       11.9260  -12.6810   62.9770 O.co2 129  GLU129     -0.2457
     91  N         17.1540  -10.4680   62.4650 N.am  130  PHE130     -0.1962
     92  CA        17.8290  -10.4740   61.1830 C.3   130  PHE130      0.1771
     93  C         17.1460  -11.4610   60.2390 C.2   130  PHE130      0.2619
     94  O         17.0330  -12.6510   60.5350 O.2   130  PHE130     -0.2715
     95  CB        19.2970  -10.8550   61.3370 C.3   130  PHE130      0.0574
     96  CG        20.0850  -10.6810   60.0890 C.ar  130  PHE130     -0.0200
     97  CD1       20.4140   -9.4190   59.6550 C.ar  130  PHE130     -0.0042
     98  CD2       20.4590  -11.7770   59.3280 C.ar  130  PHE130     -0.0042
     99  CE1       21.1300   -9.2500   58.4970 C.ar  130  PHE130     -0.0003
    100  CE2       21.1500  -11.6010   58.1830 C.ar  130  PHE130     -0.0003
    101  CZ        21.5080  -10.3340   57.7700 C.ar  130  PHE130     -0.0000
    102  N         16.7180  -10.9630   59.0910 N.am  131  ILE131     -0.1977
    103  CA        16.0400  -11.8200   58.1130 C.3   131  ILE131      0.1596
    104  C         17.0760  -12.1490   57.0600 C.2   131  ILE131      0.2287
    105  O         17.5350  -11.2730   56.3290 O.2   131  ILE131     -0.2864
    106  CB        14.8010  -11.1220   57.4670 C.3   131  ILE131      0.0276
    107  CG1       13.8160  -10.6420   58.5470 C.3   131  ILE131      0.0022
    108  CG2       14.1430  -12.0870   56.4330 C.3   131  ILE131      0.0022
    109  CD1       13.2890  -11.7120   59.5020 C.3   131  ILE131      0.0001
    110  N         21.8070  -10.5160   54.3210 N.3   137  PRO137     -0.2102
    111  CA        20.3440  -10.2820   54.3580 C.3   137  PRO137      0.1504
    112  C         19.5610  -10.9630   53.2280 C.2   137  PRO137      0.2575
    113  O         20.0580  -11.0830   52.1070 O.2   137  PRO137     -0.2718
    114  CB        20.2030   -8.7540   54.2490 C.3   137  PRO137      0.0282
    115  CG        21.5500   -8.2640   53.7680 C.3   137  PRO137      0.0208
    116  CD        22.5720   -9.2640   54.2060 C.3   137  PRO137      0.0893
    117  N         18.3440  -11.4000   53.5240 N.am  138  ALA138     -0.1980
    118  CA        17.4390  -11.8860   52.4870 C.3   138  ALA138      0.1597
    119  C         17.2050  -10.7380   51.5130 C.2   138  ALA138      0.2287
    120  O         17.1620   -9.5680   51.9210 O.2   138  ALA138     -0.2864
    121  CB        16.1090  -12.3130   53.0940 C.3   138  ALA138      0.0319
    122  N         15.3290   -8.1700   48.9800 N.3   140  THR140     -0.1218
    123  CA        14.0140   -7.6190   48.7270 C.3   140  THR140      0.1862
    124  C         13.5150   -8.0850   47.3700 C.2   140  THR140      0.2287
    125  O         14.2490   -8.6420   46.5410 O.2   140  THR140     -0.2866
    126  CB        14.0290   -6.0790   48.7760 C.3   140  THR140      0.1770
    127  OG1       14.8580   -5.5700   47.7380 O.3   140  THR140     -0.2211
    128  CG2       14.5900   -5.6090   50.1110 C.3   140  THR140      0.0375
    129  N         15.4260   -6.9390   44.5290 N.3   143  GLU143     -0.1245
    130  CA        16.7390   -7.5640   44.4580 C.3   143  GLU143      0.1567
    131  C         16.6270   -8.9680   43.8980 C.2   143  GLU143      0.2260
    132  O         17.5160   -9.4090   43.1920 O.2   143  GLU143     -0.2867
    133  CB        17.4200   -7.5610   45.8350 C.3   143  GLU143      0.0388
    134  CG        17.8170   -6.1410   46.2980 C.3   143  GLU143      0.1160
    135  CD        18.1230   -6.0070   47.8010 C.2   143  GLU143      0.3649
    136  OE1       18.0380   -7.0000   48.5470 O.co2 143  GLU143     -0.2457
    137  OE2       18.4460   -4.8760   48.2450 O.co2 143  GLU143     -0.2457
    138  N         10.5960   -2.6600   47.1580 N.3   181  TYR181     -0.1227
    139  CA        11.7330   -2.2210   47.9370 C.3   181  TYR181      0.1736
    140  C         11.6340   -2.5040   49.4620 C.2   181  TYR181      0.2595
    141  O         12.6300   -2.4090   50.1750 O.2   181  TYR181     -0.2718
    142  CB        11.8470   -0.7350   47.7500 C.3   181  TYR181      0.0548
    143  CG        12.2470   -0.3900   46.3500 C.ar  181  TYR181     -0.0200
    144  CD1       13.5920   -0.3800   45.9720 C.ar  181  TYR181     -0.0009
    145  CD2       11.2890   -0.0560   45.4030 C.ar  181  TYR181     -0.0009
    146  CE1       13.9470   -0.0530   44.6640 C.ar  181  TYR181      0.0417
    147  CE2       11.6350    0.2660   44.1010 C.ar  181  TYR181      0.0417
    148  CZ        12.9590    0.2790   43.7450 C.ar  181  TYR181      0.1957
    149  OH        13.3090    0.6340   42.4540 O.3   181  TYR181     -0.2866
    150  N         10.4430   -2.8210   49.9530 N.am  182  ASN182     -0.1974
    151  CA        10.2500   -2.9710   51.3980 C.3   182  ASN182      0.1688
    152  C          9.6310   -4.2990   51.7890 C.2   182  ASN182      0.2292
    153  O          9.0610   -4.4420   52.8690 O.2   182  ASN182     -0.2864
    154  CB         9.4110   -1.8200   51.9560 C.3   182  ASN182      0.1181
    155  CG        10.2330   -0.5400   52.1820 C.2   182  ASN182      0.2629
    156  OD1       11.4350   -0.6040   52.4610 O.2   182  ASN182     -0.2716
    157  ND2        9.5840    0.6180   52.0390 N.am  182  ASN182     -0.0877
    158  N          9.0110   -4.9080   55.8970 N.3   191  ILE191     -0.1231
    159  CA         9.9040   -4.1410   56.7050 C.3   191  ILE191      0.1692
    160  C          9.6590   -2.6580   56.4510 C.2   191  ILE191      0.2592
    161  O          8.8940   -2.3060   55.5420 O.2   191  ILE191     -0.2718
    162  CB        11.3860   -4.4380   56.3450 C.3   191  ILE191      0.0266
    163  CG1       11.6570   -4.0880   54.9090 C.3   191  ILE191      0.0019
    164  CG2       11.8040   -5.9120   56.7130 C.3   191  ILE191      0.0020
    165  CD1       13.1500   -3.9950   54.6230 C.3   191  ILE191      0.0001
    166  N         10.3200   -1.8050   57.2390 N.am  192  ASP192     -0.1974
    167  CA        10.3490   -0.3320   57.0440 C.3   192  ASP192      0.1709
    168  C          9.0010    0.3090   57.4880 C.2   192  ASP192      0.2293
    169  O          8.1650    0.6740   56.6930 O.2   192  ASP192     -0.2864
    170  CB        10.7330    0.0120   55.5930 C.3   192  ASP192      0.1436
    171  CG        11.2830    1.4300   55.4250 C.2   192  ASP192      0.3671
    172  OD1       11.4280    2.1710   56.4480 O.co2 192  ASP192     -0.2456
    173  OD2       11.6370    1.7910   54.2640 O.co2 192  ASP192     -0.2456
@<TRIPOS>BOND
     1   149   148    1
     2   132   131    2
     3   148   147   ar
     4   148   146   ar
     5   131   130    1
     6   147   145   ar
     7   130   129    1
     8   130   133    1
     9   146   144   ar
    10   145   143   ar
    11   133   134    1
    12   144   143   ar
    13   134   135    1
    14   143   142    1
    15   125   124    2
    16   138   139    1
    17   124   123    1
    18   127   126    1
    19   142   139    1
    20   135   137   ar
    21   135   136   ar
    22   139   140    1
    23   123   126    1
    24   123   122    1
    25   126   128    1
    26   140   150   am
    27   140   141    2
    28   150   151    1
    29   151   152    1
    30   151   154    1
    31   119   120    2
    32   119   118    1
    33   152   153    2
    34   154   155    1
    35   157   155   am
    36   113   112    2
    37   155   156    2
    38   118   121    1
    39   118   117    1
    40   112   117   am
    41   112   111    1
    42    14    13    1
    43     4     3    2
    44    16    17    1
    45    16    15    1
    46   115   116    1
    47   115   114    1
    48    17    18    2
    49   116   110    1
    50    13    10    1
    51   114   111    1
    52   173   171   ar
    53    10    11    1
    54    10     9    1
    55   110   111    1
    56   165   163    1
    57     3     9   am
    58     3     2    1
    59    27    25   ar
    60    11    12    2
    61   163   162    1
    62   171   170    1
    63   171   172   ar
    64     7     5    1
    65   161   160    2
    66   170   167    1
    67    19    20    1
    68     2     5    1
    69     2     1    1
    70    25    24    1
    71    25    26   ar
    72   158   159    1
    73    24    23    1
    74   105   104    2
    75   162   159    1
    76   162   164    1
    77   108   106    1
    78   160   159    1
    79   160   166   am
    80     5     6    1
    81   169   168    2
    82     8     6    1
    83    31    30    2
    84    23    20    1
    85    20    21    1
    86   167   166    1
    87   167   168    1
    88   104   103    1
    89   106   103    1
    90   106   107    1
    91    28    21   am
    92    28    29    1
    93   101   100   ar
    94   101    99   ar
    95    30    29    1
    96    21    22    2
    97    39    37    1
    98   103   102    1
    99   100    98   ar
   100    37    38    1
   101    37    34    1
   102    36    35    2
   103    29    32    1
   104    99    97   ar
   105   107   109    1
   106    33    34    1
   107    53    52    1
   108   102    93   am
   109    34    35    1
   110    52    51    1
   111    98    96   ar
   112    97    96   ar
   113    51    50    1
   114    81    80    1
   115    81    75    1
   116    96    95    1
   117    80    79    1
   118    93    94    2
   119    93    92    1
   120    62    60   ar
   121    62    64   ar
   122    65    64    1
   123    74    72   ar
   124    75    76    1
   125    50    49    1
   126    60    59   ar
   127    64    63   ar
   128    92    95    1
   129    92    91    1
   130    44    41    1
   131    79    76    1
   132    72    73   ar
   133    72    71    1
   134    85    84    2
   135    76    77    1
   136    49    46    1
   137    41    40    1
   138    41    42    1
   139    59    58    1
   140    59    61   ar
   141    46    47    1
   142    46    45    1
   143    63    61   ar
   144    91    84   am
   145    55    56    1
   146    55    58    1
   147    55    54    1
   148    89    88   ar
   149    71    70    1
   150    84    83    1
   151    56    57    2
   152    88    90   ar
   153    88    87    1
   154    47    48    2
   155    42    43    2
   156    77    78    2
   157    70    67    1
   158    87    86    1
   159    86    83    1
   160    83    82    1
   161    67    66    1
   162    67    68    1
   163    69    68    2
