@<TRIPOS>MOLECULE
tmp/1zthC00.pdb
 164 155 0 0 0
SMALL
GASTEIGER

@<TRIPOS>ATOM
      1  N         26.6730    0.2180   -3.7040 N.3    53  ILE53      -0.1231
      2  CA        25.6820   -0.5750   -4.4790 C.3    53  ILE53       0.1692
      3  C         25.0760    0.2460   -5.6440 C.2    53  ILE53       0.2592
      4  O         24.8710   -0.2800   -6.7620 O.2    53  ILE53      -0.2718
      5  CB        24.5480   -1.1300   -3.5340 C.3    53  ILE53       0.0266
      6  CG1       25.1420   -1.9830   -2.4010 C.3    53  ILE53       0.0019
      7  CG2       23.5050   -1.9880   -4.2620 C.3    53  ILE53       0.0020
      8  CD1       25.9100   -3.2210   -2.8670 C.3    53  ILE53       0.0001
      9  N         24.7840    1.5080   -5.4030 N.am   54  SER54      -0.1952
     10  CA        24.2340    2.3640   -6.4380 C.3    54  SER54       0.1924
     11  C         24.6210    3.7840   -6.1650 C.2    54  SER54       0.2314
     12  O         24.6180    4.2180   -5.0060 O.2    54  SER54      -0.2863
     13  CB        22.6930    2.2450   -6.4540 C.3    54  SER54       0.2116
     14  OG        22.1580    3.1480   -7.4310 O.3    54  SER54      -0.2180
     15  N         23.3770    7.5200   -7.6030 N.3    56  GLY56      -0.1225
     16  CA        22.4200    8.1960   -8.4740 C.3    56  GLY56       0.1811
     17  C         22.2750    9.6850   -8.2690 C.2    56  GLY56       0.2280
     18  O         23.0060   10.2900   -7.4860 O.2    56  GLY56      -0.2866
     19  N         19.5540   11.1890   -6.9750 N.3    58  GLU58      -0.1231
     20  CA        18.8950   11.5780   -5.7380 C.3    58  GLU58       0.1699
     21  C         19.4080   10.7740   -4.5750 C.2    58  GLU58       0.2592
     22  O         19.3940   11.2590   -3.4470 O.2    58  GLU58      -0.2718
     23  CB        17.3920   11.4010   -5.8430 C.3    58  GLU58       0.0402
     24  CG        17.0090   10.3690   -6.8530 C.3    58  GLU58       0.1161
     25  CD        16.3030   10.9800   -8.0370 C.2    58  GLU58       0.3649
     26  OE1       16.7850   10.8150   -9.1870 O.co2  58  GLU58      -0.2457
     27  OE2       15.2550   11.6230   -7.8010 O.co2  58  GLU58      -0.2457
     28  N         19.8070    9.5410   -4.8290 N.am   59  ALA59      -0.1980
     29  CA        20.2380    8.6570   -3.7270 C.3    59  ALA59       0.1597
     30  C         21.4590    7.8190   -4.0460 C.2    59  ALA59       0.2287
     31  O         21.7720    7.5420   -5.2240 O.2    59  ALA59      -0.2864
     32  CB        19.1040    7.7390   -3.3110 C.3    59  ALA59       0.0319
     33  N         23.3420    4.1050   -2.5050 N.3    61  VAL61      -0.1245
     34  CA        23.0910    2.9270   -1.7370 C.3    61  VAL61       0.1561
     35  C         24.3760    2.1460   -1.4750 C.2    61  VAL61       0.2260
     36  O         25.1710    1.8930   -2.4120 O.2    61  VAL61      -0.2867
     37  CB        22.0540    2.0160   -2.4450 C.3    61  VAL61       0.0252
     38  CG1       21.6550    0.8680   -1.5380 C.3    61  VAL61       0.0019
     39  CG2       20.7930    2.8050   -2.7530 C.3    61  VAL61       0.0019
     40  N         21.1180   -2.6640    3.6290 N.3    75  ALA75      -0.1245
     41  CA        21.2890   -1.6780    2.5780 C.3    75  ALA75       0.1562
     42  C         21.1530   -0.3460    3.2650 C.2    75  ALA75       0.2260
     43  O         20.2060   -0.1210    4.0120 O.2    75  ALA75      -0.2867
     44  CB        20.2350   -1.8010    1.5350 C.3    75  ALA75       0.0290
     45  N         20.5770    3.4190    2.4310 N.3    77  LYS77      -0.1245
     46  CA        20.2540    4.3580    1.3710 C.3    77  LYS77       0.1561
     47  C         20.3420    5.7960    1.8850 C.2    77  LYS77       0.2260
     48  O         19.7320    6.1530    2.8840 O.2    77  LYS77      -0.2867
     49  CB        18.8320    4.1070    0.8700 C.3    77  LYS77       0.0271
     50  CG        18.4020    5.0060   -0.2630 C.3    77  LYS77       0.0035
     51  CD        17.1040    4.4870   -0.8300 C.3    77  LYS77       0.0206
     52  CE        16.7390    5.1910   -2.1440 C.3    77  LYS77       0.1093
     53  NZ        15.3280    4.7730   -2.5160 N.3    77  LYS77      -0.1314
     54  N         19.9460    9.8530    0.8080 N.3    79  TYR79      -0.1241
     55  CA        19.4820   10.8780   -0.1000 C.3    79  TYR79       0.1605
     56  C         20.4230   12.0400   -0.0810 C.2    79  TYR79       0.2264
     57  O         20.7720   12.5410    0.9690 O.2    79  TYR79      -0.2867
     58  CB        18.0530   11.3400    0.2480 C.3    79  TYR79       0.0534
     59  CG        17.0320   10.3170   -0.1500 C.ar   79  TYR79      -0.0201
     60  CD1       16.6080   10.2020   -1.4780 C.ar   79  TYR79      -0.0009
     61  CD2       16.5620    9.3950    0.7720 C.ar   79  TYR79      -0.0009
     62  CE1       15.6900    9.2220   -1.8650 C.ar   79  TYR79       0.0417
     63  CE2       15.6320    8.3980    0.3850 C.ar   79  TYR79       0.0417
     64  CZ        15.2250    8.3090   -0.9280 C.ar   79  TYR79       0.1957
     65  OH        14.2870    7.3190   -1.2600 O.3    79  TYR79      -0.2866
     66  N         11.8630   -4.7930    1.6950 N.3   114  PRO114     -0.2116
     67  CA        12.9010   -5.0810    2.7100 C.3   114  PRO114      0.1372
     68  C         12.4690   -4.5290    4.0680 C.2   114  PRO114      0.2244
     69  O         11.8040   -3.4800    4.1260 O.2   114  PRO114     -0.2868
     70  CB        14.1540   -4.3470    2.1840 C.3   114  PRO114      0.0268
     71  CG        13.8210   -3.9540    0.7320 C.3   114  PRO114      0.0207
     72  CD        12.2990   -3.8170    0.6880 C.3   114  PRO114      0.0892
     73  N         16.7480   -3.8630    5.3670 N.3   125  GLU125     -0.1231
     74  CA        17.2640   -5.2310    5.1530 C.3   125  GLU125      0.1699
     75  C         17.9620   -5.3150    3.7840 C.2   125  GLU125      0.2592
     76  O         17.4830   -4.7580    2.8040 O.2   125  GLU125     -0.2718
     77  CB        16.0730   -6.2200    5.2120 C.3   125  GLU125      0.0402
     78  CG        16.4470   -7.6970    4.9280 C.3   125  GLU125      0.1161
     79  CD        15.2210   -8.5920    4.7340 C.2   125  GLU125      0.3649
     80  OE1       14.0750   -8.0880    4.7810 O.co2 125  GLU125     -0.2457
     81  OE2       15.4220   -9.7960    4.5190 O.co2 125  GLU125     -0.2457
     82  N         19.1170   -5.9650    3.7060 N.am  126  PHE126     -0.1962
     83  CA        19.7770   -6.1200    2.4160 C.3   126  PHE126      0.1771
     84  C         19.1500   -7.3010    1.6800 C.2   126  PHE126      0.2619
     85  O         19.0160   -8.3780    2.2350 O.2   126  PHE126     -0.2715
     86  CB        21.2860   -6.3500    2.6030 C.3   126  PHE126      0.0574
     87  CG        22.0550   -6.3440    1.3280 C.ar  126  PHE126     -0.0200
     88  CD1       22.3940   -5.1290    0.7120 C.ar  126  PHE126     -0.0042
     89  CD2       22.4210   -7.5330    0.7230 C.ar  126  PHE126     -0.0042
     90  CE1       23.1110   -5.1020   -0.4870 C.ar  126  PHE126     -0.0003
     91  CE2       23.1360   -7.5190   -0.4740 C.ar  126  PHE126     -0.0003
     92  CZ        23.4570   -6.2910   -1.0890 C.ar  126  PHE126     -0.0000
     93  N         18.7280   -7.0870    0.4450 N.am  127  ILE127     -0.1977
     94  CA        18.1420   -8.1580   -0.3350 C.3   127  ILE127      0.1596
     95  C         19.1740   -8.5860   -1.3830 C.2   127  ILE127      0.2287
     96  O         19.5120   -7.8310   -2.2720 O.2   127  ILE127     -0.2864
     97  CB        16.8690   -7.7020   -1.0370 C.3   127  ILE127      0.0276
     98  CG1       15.9710   -6.9130   -0.0680 C.3   127  ILE127      0.0022
     99  CG2       16.1320   -8.9020   -1.6140 C.3   127  ILE127      0.0022
    100  CD1       15.3680   -7.7860    1.0340 C.3   127  ILE127      0.0001
    101  N         23.4750   -7.1020   -4.5480 N.3   133  PRO133     -0.2102
    102  CA        22.0330   -7.0050   -4.4610 C.3   133  PRO133      0.1504
    103  C         21.3510   -8.0180   -5.3610 C.2   133  PRO133      0.2575
    104  O         21.9350   -8.4870   -6.3550 O.2   133  PRO133     -0.2718
    105  CB        21.7410   -5.6070   -4.9460 C.3   133  PRO133      0.0282
    106  CG        22.9140   -5.2040   -5.7310 C.3   133  PRO133      0.0208
    107  CD        24.0800   -5.9400   -5.1870 C.3   133  PRO133      0.0893
    108  N         20.1270   -8.3780   -4.9990 N.am  134  ALA134     -0.1980
    109  CA        19.2670   -9.1190   -5.9130 C.3   134  ALA134      0.1597
    110  C         19.0990   -8.2580   -7.1570 C.2   134  ALA134      0.2287
    111  O         19.0370   -7.0340   -7.0610 O.2   134  ALA134     -0.2864
    112  CB        17.9140   -9.3380   -5.2710 C.3   134  ALA134      0.0319
    113  N         17.1940   -6.4590  -10.2460 N.3   136  THR136     -0.1218
    114  CA        15.8370   -5.9550  -10.5560 C.3   136  THR136      0.1862
    115  C         15.2900   -6.7160  -11.7630 C.2   136  THR136      0.2287
    116  O         16.0740   -7.4280  -12.4540 O.2   136  THR136     -0.2866
    117  CB        15.8790   -4.4870  -10.8520 C.3   136  THR136      0.1770
    118  OG1       16.8300   -4.2810  -11.8980 O.3   136  THR136     -0.2211
    119  CG2       16.3310   -3.7360   -9.6000 C.3   136  THR136      0.0375
    120  N         17.2370   -6.1440  -14.7090 N.3   139  GLU139     -0.1245
    121  CA        18.5510   -6.7940  -14.6840 C.3   139  GLU139      0.1567
    122  C         18.4840   -8.2820  -15.0060 C.2   139  GLU139      0.2260
    123  O         19.3630   -8.7900  -15.7050 O.2   139  GLU139     -0.2867
    124  CB        19.2900   -6.5360  -13.3700 C.3   139  GLU139      0.0388
    125  CG        19.7360   -5.0710  -13.2120 C.3   139  GLU139      0.1160
    126  CD        20.2420   -4.7350  -11.8110 C.2   139  GLU139      0.3649
    127  OE1       21.0790   -3.8150  -11.6970 O.co2 139  GLU139     -0.2457
    128  OE2       19.8130   -5.3700  -10.8190 O.co2 139  GLU139     -0.2457
    129  N         12.2720   -1.4390  -12.8650 N.3   177  TYR177     -0.1227
    130  CA        13.5030   -0.8570  -12.2840 C.3   177  TYR177      0.1736
    131  C         13.4970   -0.8330  -10.7680 C.2   177  TYR177      0.2595
    132  O         14.5550   -0.6920  -10.1590 O.2   177  TYR177     -0.2718
    133  CB        13.7210    0.5780  -12.7710 C.3   177  TYR177      0.0548
    134  CG        14.1160    0.6300  -14.2110 C.ar  177  TYR177     -0.0200
    135  CD1       15.4680    0.6510  -14.5730 C.ar  177  TYR177     -0.0009
    136  CD2       13.1490    0.6520  -15.2150 C.ar  177  TYR177     -0.0009
    137  CE1       15.8510    0.6850  -15.9230 C.ar  177  TYR177      0.0417
    138  CE2       13.5120    0.6600  -16.5700 C.ar  177  TYR177      0.0417
    139  CZ        14.8660    0.6940  -16.9050 C.ar  177  TYR177      0.1957
    140  OH        15.2330    0.7440  -18.2290 O.3   177  TYR177     -0.2866
    141  N         12.3130   -0.9900  -10.1720 N.am  178  ASN178     -0.1974
    142  CA        12.1650   -0.9090   -8.7330 C.3   178  ASN178      0.1688
    143  C         11.5840   -2.1860   -8.1590 C.2   178  ASN178      0.2292
    144  O         11.0460   -2.2060   -7.0730 O.2   178  ASN178     -0.2864
    145  CB        11.2910    0.2690   -8.3750 C.3   178  ASN178      0.1181
    146  CG        12.0270    1.5940   -8.4960 C.2   178  ASN178      0.2629
    147  OD1       13.2650    1.6360   -8.3990 O.2   178  ASN178     -0.2716
    148  ND2       11.2810    2.6720   -8.7430 N.am  178  ASN178     -0.0877
    149  N         10.9100   -2.0260   -3.9470 N.3   187  ILE187     -0.1231
    150  CA        11.7180   -0.9940   -3.3210 C.3   187  ILE187      0.1692
    151  C         11.3990    0.4320   -3.8520 C.2   187  ILE187      0.2592
    152  O         10.5780    0.6210   -4.7750 O.2   187  ILE187     -0.2718
    153  CB        13.2600   -1.2900   -3.4820 C.3   187  ILE187      0.0266
    154  CG1       13.6110   -1.7090   -4.9070 C.3   187  ILE187      0.0019
    155  CG2       13.7130   -2.4240   -2.5200 C.3   187  ILE187      0.0020
    156  CD1       15.0920   -1.5320   -5.2390 C.3   187  ILE187      0.0001
    157  N         12.0730    1.4200   -3.2630 N.am  188  ASP188     -0.1974
    158  CA        12.0500    2.8230   -3.7070 C.3   188  ASP188      0.1709
    159  C         10.7130    3.4660   -3.4330 C.2   188  ASP188      0.2293
    160  O          9.9260    3.6340   -4.3590 O.2   188  ASP188     -0.2864
    161  CB        12.3870    2.9630   -5.2270 C.3   188  ASP188      0.1436
    162  CG        12.9270    4.3740   -5.5800 C.2   188  ASP188      0.3671
    163  OD1       12.8230    5.2670   -4.7070 O.co2 188  ASP188     -0.2456
    164  OD2       13.4420    4.5950   -6.7080 O.co2 188  ASP188     -0.2456
@<TRIPOS>BOND
     1   140   139    1
     2   139   138   ar
     3   139   137   ar
     4   138   136   ar
     5   137   135   ar
     6   123   122    2
     7   136   134   ar
     8   122   121    1
     9   120   121    1
    10   121   124    1
    11   135   134   ar
    12   134   133    1
    13   124   125    1
    14   125   126    1
    15   129   130    1
    16   133   130    1
    17   116   115    2
    18   130   131    1
    19   118   117    1
    20   126   127   ar
    21   126   128   ar
    22   115   114    1
    23   117   114    1
    24   117   119    1
    25   131   141   am
    26   131   132    2
    27   114   113    1
    28   141   142    1
    29    26    25   ar
    30   148   146   am
    31   142   145    1
    32   142   143    1
    33   146   147    2
    34   146   145    1
    35    16    17    1
    36    16    15    1
    37    17    18    2
    38   143   144    2
    39    25    27   ar
    40    25    24    1
    41    14    13    1
    42   110   111    2
    43   110   109    1
    44    19    20    1
    45    24    23    1
    46     4     3    2
    47   164   162   ar
    48    13    10    1
    49    10    11    1
    50    10     9    1
    51   104   103    2
    52    11    12    2
    53   109   112    1
    54   109   108    1
    55    23    20    1
    56    20    21    1
    57   106   107    1
    58   106   105    1
    59     3     9   am
    60     3     2    1
    61   162   161    1
    62   162   163   ar
    63   103   108   am
    64   103   102    1
    65   156   154    1
    66   161   158    1
    67    31    30    2
    68   107   101    1
    69   105   102    1
    70   154   153    1
    71    28    21   am
    72    28    29    1
    73   152   151    2
    74    21    22    2
    75   101   102    1
    76     2     1    1
    77     2     5    1
    78   160   159    2
    79     7     5    1
    80    30    29    1
    81   149   150    1
    82   151   150    1
    83   151   157   am
    84    29    32    1
    85   158   159    1
    86   158   157    1
    87     5     6    1
    88   153   150    1
    89   153   155    1
    90     8     6    1
    91    39    37    1
    92    53    52    1
    93    33    34    1
    94    37    34    1
    95    37    38    1
    96    36    35    2
    97    96    95    2
    98    52    51    1
    99    62    60   ar
   100    62    64   ar
   101    34    35    1
   102    99    97    1
   103    60    59   ar
   104    95    94    1
   105    65    64    1
   106    92    90   ar
   107    92    91   ar
   108    97    94    1
   109    97    98    1
   110    64    63   ar
   111    51    50    1
   112    90    88   ar
   113    91    89   ar
   114    94    93    1
   115    50    49    1
   116    59    58    1
   117    59    61   ar
   118    55    56    1
   119    55    58    1
   120    55    54    1
   121    56    57    2
   122    98   100    1
   123    63    61   ar
   124    93    84   am
   125    72    71    1
   126    72    66    1
   127    88    87   ar
   128    89    87   ar
   129    71    70    1
   130    49    46    1
   131    87    86    1
   132    46    47    1
   133    46    45    1
   134    44    41    1
   135    84    85    2
   136    84    83    1
   137    66    67    1
   138    47    48    2
   139    70    67    1
   140    83    86    1
   141    83    82    1
   142    41    42    1
   143    41    40    1
   144    67    68    1
   145    76    75    2
   146    42    43    2
   147    82    75   am
   148    75    74    1
   149    68    69    2
   150    81    79   ar
   151    79    80   ar
   152    79    78    1
   153    78    77    1
   154    74    77    1
   155    74    73    1
