@<TRIPOS>MOLECULE
tmp/1ztjA00.pdb
 196 195 0 0 0
SMALL
GASTEIGER

@<TRIPOS>ATOM
      1  N          7.1590   66.8480   93.4370 N.3    28  LEU28      -0.1231
      2  CA         6.9420   68.2100   92.9780 C.3    28  LEU28       0.1693
      3  C          8.0490   68.6690   92.0250 C.2    28  LEU28       0.2592
      4  O          7.7930   69.1090   90.9020 O.2    28  LEU28      -0.2718
      5  CB         6.8970   69.1460   94.1890 C.3    28  LEU28       0.0284
      6  CG         6.8190   70.6490   93.9120 C.3    28  LEU28       0.0019
      7  CD1        5.5270   70.9600   93.1590 C.3    28  LEU28       0.0001
      8  CD2        6.8740   71.4150   95.2270 C.3    28  LEU28       0.0001
      9  N          9.2860   68.5420   92.4800 N.am   29  CYS29      -0.1970
     10  CA        10.4220   68.9680   91.6950 C.3    29  CYS29       0.1712
     11  C         11.6940   68.2260   92.0530 C.2    29  CYS29       0.2296
     12  O         11.7360   67.4940   93.0470 O.2    29  CYS29      -0.2864
     13  CB        10.6430   70.4640   91.9190 C.3    29  CYS29       0.0983
     14  SG         9.6020   71.5330   90.8750 S.3    29  CYS29      -0.0798
     15  N         10.5430   78.6240   90.6540 N.3    44  HIS44      -0.1226
     16  CA         9.2110   78.4670   90.1200 C.3    44  HIS44       0.1752
     17  C          8.5720   77.1640   90.5830 C.2    44  HIS44       0.2596
     18  O          7.4370   76.8390   90.2250 O.2    44  HIS44      -0.2718
     19  CB         9.2770   78.4710   88.6140 C.3    44  HIS44       0.0759
     20  CG         9.6680   77.1570   88.0220 C.ar   44  HIS44       0.0818
     21  ND1       10.9460   76.8670   87.6360 N.ar   44  HIS44      -0.2268
     22  CD2        8.9480   76.0440   87.8280 C.ar   44  HIS44       0.1154
     23  CE1       11.0340   75.6000   87.2270 C.ar   44  HIS44       0.1986
     24  NE2        9.8380   75.0960   87.3400 N.ar   44  HIS44      -0.2212
     25  N          9.3040   76.3870   91.3620 N.am   45  CYS45      -0.1970
     26  CA         8.7960   75.1220   91.8740 C.3    45  CYS45       0.1712
     27  C          7.9440   75.3290   93.1200 C.2    45  CYS45       0.2296
     28  O          7.2810   74.4040   93.5980 O.2    45  CYS45      -0.2864
     29  CB         9.9490   74.1890   92.2330 C.3    45  CYS45       0.0983
     30  SG        10.6670   73.2660   90.8580 S.3    45  CYS45      -0.0798
     31  N         10.1060   81.8030   85.7840 N.3    88  ALA88      -0.1231
     32  CA        11.1620   81.0370   85.1360 C.3    88  ALA88       0.1694
     33  C         11.7360   81.6690   83.8670 C.2    88  ALA88       0.2591
     34  O         12.9470   81.8710   83.7590 O.2    88  ALA88      -0.2718
     35  CB        10.6580   79.6340   84.8320 C.3    88  ALA88       0.0304
     36  N         10.8670   81.9760   82.9110 N.am   89  GLU89      -0.1979
     37  CA        11.3050   82.5490   81.6480 C.3    89  GLU89       0.1602
     38  C         11.9830   83.9120   81.7380 C.2    89  GLU89       0.2287
     39  O         12.5300   84.3810   80.7460 O.2    89  GLU89      -0.2864
     40  CB        10.1230   82.6260   80.6770 C.3    89  GLU89       0.0415
     41  CG         9.5410   81.2670   80.3240 C.3    89  GLU89       0.1163
     42  CD         8.1290   81.3640   79.7920 C.2    89  GLU89       0.3649
     43  OE1        7.9450   81.8520   78.6580 O.co2  89  GLU89      -0.2457
     44  OE2        7.2020   80.9620   80.5200 O.co2  89  GLU89      -0.2457
     45  N         14.7840   81.2480   70.6130 N.3   162  TYR162     -0.1241
     46  CA        13.7430   81.8410   71.4400 C.3   162  TYR162      0.1605
     47  C         13.6600   83.3440   71.1890 C.2   162  TYR162      0.2264
     48  O         13.8390   84.1520   72.1050 O.2   162  TYR162     -0.2867
     49  CB        14.0200   81.5710   72.9260 C.3   162  TYR162      0.0534
     50  CG        13.8320   80.1270   73.3370 C.ar  162  TYR162     -0.0201
     51  CD1       14.9120   79.2490   73.4160 C.ar  162  TYR162     -0.0009
     52  CD2       12.5690   79.6350   73.6250 C.ar  162  TYR162     -0.0009
     53  CE1       14.7260   77.9160   73.7720 C.ar  162  TYR162      0.0417
     54  CE2       12.3740   78.3090   73.9800 C.ar  162  TYR162      0.0417
     55  CZ        13.4490   77.4560   74.0500 C.ar  162  TYR162      0.1957
     56  OH        13.2380   76.1380   74.3750 O.3   162  TYR162     -0.2866
     57  N         12.0160   85.6380   73.6220 N.3   165  HIS165     -0.1241
     58  CA        12.5760   85.8220   74.9640 C.3   165  HIS165      0.1621
     59  C         13.9430   86.4650   74.9330 C.2   165  HIS165      0.2264
     60  O         14.5260   86.6930   73.8780 O.2   165  HIS165     -0.2867
     61  CB        12.7580   84.4870   75.6910 C.3   165  HIS165      0.0745
     62  CG        11.4880   83.7450   75.9330 C.ar  165  HIS165      0.0817
     63  ND1       10.7860   83.1320   74.9210 N.ar  165  HIS165     -0.2268
     64  CD2       10.7850   83.5280   77.0690 C.ar  165  HIS165      0.1154
     65  CE1        9.7030   82.5700   75.4230 C.ar  165  HIS165      0.1986
     66  NE2        9.6790   82.7930   76.7250 N.ar  165  HIS165     -0.2212
     67  N         15.7860   65.8050   76.2580 N.3   182  ASP182     -0.1225
     68  CA        15.6060   67.0660   76.9660 C.3   182  ASP182      0.1805
     69  C         14.9390   66.8090   78.3130 C.2   182  ASP182      0.2598
     70  O         14.5150   65.6940   78.6090 O.2   182  ASP182     -0.2718
     71  CB        14.7160   67.9490   76.0750 C.3   182  ASP182      0.1424
     72  CG        14.5610   69.3730   76.5750 C.2   182  ASP182      0.3668
     73  OD1       15.3590   69.8380   77.4140 O.co2 182  ASP182     -0.2456
     74  OD2       13.6250   70.0400   76.0880 O.co2 182  ASP182     -0.2456
     75  N         14.8650   67.8440   79.1360 N.am  183  ALA183     -0.1966
     76  CA        14.1920   67.7340   80.4150 C.3   183  ALA183      0.1728
     77  C         12.7200   67.9900   80.0740 C.2   183  ALA183      0.2616
     78  O         12.4100   68.4230   78.9640 O.2   183  ALA183     -0.2715
     79  CB        14.7080   68.8080   81.3740 C.3   183  ALA183      0.0334
     80  N         11.8190   67.7190   81.0120 N.am  184  CYS184     -0.1954
     81  CA        10.3980   67.9580   80.7810 C.3   184  CYS184      0.1843
     82  C          9.7180   68.2150   82.1260 C.2   184  CYS184      0.2625
     83  O         10.3850   68.2360   83.1590 O.2   184  CYS184     -0.2714
     84  CB         9.7670   66.7620   80.0560 C.3   184  CYS184      0.0997
     85  SG         8.2320   67.1400   79.1310 S.3   184  CYS184     -0.0797
     86  N          8.4040   68.4120   82.1160 N.am  185  LYS185     -0.1963
     87  CA         7.6680   68.7090   83.3390 C.3   185  LYS185      0.1728
     88  C          7.9420   67.6960   84.4450 C.2   185  LYS185      0.2617
     89  O          7.7980   66.4880   84.2520 O.2   185  LYS185     -0.2715
     90  CB         6.1620   68.8010   83.0350 C.3   185  LYS185      0.0311
     91  CG         5.2880   69.1570   84.2330 C.3   185  LYS185      0.0038
     92  CD         3.8520   69.5230   83.8530 C.3   185  LYS185      0.0206
     93  CE         3.0310   69.8740   85.0960 C.3   185  LYS185      0.1093
     94  NZ         1.6320   70.2750   84.7630 N.3   185  LYS185     -0.1314
     95  N          8.3370   68.1940   85.6120 N.am  186  GLY186     -0.1940
     96  CA         8.6480   67.3100   86.7200 C.3   186  GLY186      0.2014
     97  C         10.1470   67.2610   86.9790 C.2   186  GLY186      0.2639
     98  O         10.5830   66.9240   88.0850 O.2   186  GLY186     -0.2714
     99  N         10.9400   67.5940   85.9610 N.am  187  ASP187     -0.1957
    100  CA        12.4010   67.6130   86.0900 C.3   187  ASP187      0.1840
    101  C         12.9000   68.9400   86.6640 C.2   187  ASP187      0.2622
    102  O         14.0550   69.0570   87.0910 O.2   187  ASP187     -0.2715
    103  CB        13.0680   67.3760   84.7340 C.3   187  ASP187      0.1450
    104  CG        12.8210   65.9780   84.2010 C.2   187  ASP187      0.3671
    105  OD1       12.9580   65.0110   84.9920 O.co2 187  ASP187     -0.2456
    106  OD2       12.5000   65.8500   82.9990 O.co2 187  ASP187     -0.2456
    107  N         12.0150   69.9330   86.6520 N.am  188  SER188     -0.1950
    108  CA        12.2810   71.2760   87.1610 C.3   188  SER188      0.1924
    109  C         13.0200   71.2600   88.4900 C.2   188  SER188      0.2314
    110  O         12.6930   70.4840   89.3830 O.2   188  SER188     -0.2863
    111  CB        10.9570   72.0300   87.3340 C.3   188  SER188      0.2116
    112  OG        10.5300   72.5880   86.1020 O.3   188  SER188     -0.2180
    113  N         17.4520   72.8250   85.9540 N.3   206  THR206     -0.1203
    114  CA        16.3580   72.6890   84.9890 C.3   206  THR206      0.1994
    115  C         15.3370   73.7800   85.2680 C.2   206  THR206      0.2619
    116  O         14.7980   73.8680   86.3730 O.2   206  THR206     -0.2717
    117  CB        15.7160   71.2970   85.1090 C.3   206  THR206      0.1784
    118  OG1       16.7310   70.3110   84.8820 O.3   206  THR206     -0.2211
    119  CG2       14.6050   71.1060   84.0720 C.3   206  THR206      0.0376
    120  N         15.0720   74.6130   84.2660 N.am  207  SER207     -0.1937
    121  CA        14.1630   75.7350   84.4440 C.3   207  SER207      0.2055
    122  C         12.9560   75.7390   83.5070 C.2   207  SER207      0.2643
    123  O         11.8300   75.5860   83.9640 O.2   207  SER207     -0.2714
    124  CB        14.9510   77.0440   84.2910 C.3   207  SER207      0.2130
    125  OG        14.1730   78.1770   84.6640 O.3   207  SER207     -0.2179
    126  N         13.1810   75.9160   82.2070 N.am  208  TRP208     -0.1959
    127  CA        12.0730   75.9510   81.2540 C.3   208  TRP208      0.1771
    128  C         12.4690   75.5960   79.8320 C.2   208  TRP208      0.2620
    129  O         13.6290   75.2890   79.5420 O.2   208  TRP208     -0.2715
    130  CB        11.4200   77.3420   81.2370 C.3   208  TRP208      0.0590
    131  CG        12.3590   78.4650   80.8170 C.ar  208  TRP208      0.0006
    132  CD1       13.2840   79.0860   81.5980 C.ar  208  TRP208      0.0946
    133  CD2       12.4310   79.1030   79.5290 C.ar  208  TRP208      0.0152
    134  NE1       13.9230   80.0770   80.8870 N.ar  208  TRP208     -0.2442
    135  CE2       13.4160   80.1080   79.6150 C.ar  208  TRP208      0.0810
    136  CE3       11.7560   78.9260   78.3180 C.ar  208  TRP208      0.0012
    137  CZ2       13.7430   80.9320   78.5370 C.ar  208  TRP208      0.0191
    138  CZ3       12.0830   79.7510   77.2450 C.ar  208  TRP208      0.0001
    139  CH2       13.0650   80.7390   77.3650 C.ar  208  TRP208      0.0015
    140  N         11.4770   75.6590   78.9500 N.am  209  GLY209     -0.1940
    141  CA        11.6720   75.3670   77.5400 C.3   209  GLY209      0.2014
    142  C         10.3170   75.3220   76.8490 C.2   209  GLY209      0.2639
    143  O          9.2920   75.2030   77.5200 O.2   209  GLY209     -0.2714
    144  N         10.2890   75.4320   75.5240 N.am  210  GLU210     -0.1963
    145  CA         9.0100   75.3740   74.8120 C.3   210  GLU210      0.1733
    146  C          8.6990   73.9150   74.5600 C.2   210  GLU210      0.2617
    147  O          9.3290   73.2800   73.7150 O.2   210  GLU210     -0.2715
    148  CB         9.0780   76.1020   73.4690 C.3   210  GLU210      0.0429
    149  CG         7.8600   75.7880   72.6100 C.3   210  GLU210      0.1163
    150  CD         7.8860   76.4490   71.2630 C.2   210  GLU210      0.3649
    151  OE1        7.6390   75.7440   70.2640 O.co2 210  GLU210     -0.2457
    152  OE2        8.1310   77.6680   71.1970 O.co2 210  GLU210     -0.2457
    153  N          7.7230   73.3830   75.2820 N.am  211  GLY211     -0.1940
    154  CA         7.4060   71.9830   75.1130 C.3   211  GLY211      0.2014
    155  C          8.6050   71.2050   75.6160 C.2   211  GLY211      0.2639
    156  O          9.3690   71.7080   76.4450 O.2   211  GLY211     -0.2714
    157  N          8.7840   69.9870   75.1250 N.am  212  CYS212     -0.1967
    158  CA         9.9120   69.1700   75.5480 C.3   212  CYS212      0.1712
    159  C         10.5530   68.4410   74.3770 C.2   212  CYS212      0.2296
    160  O          9.8610   67.8280   73.5660 O.2   212  CYS212     -0.2864
    161  CB         9.4590   68.1300   76.5690 C.3   212  CYS212      0.0983
    162  SG         8.6940   68.8100   78.0680 S.3   212  CYS212     -0.0798
    163  N         14.5920   73.7440   69.8590 N.3   217  ARG217     -0.1245
    164  CA        14.0520   74.3220   71.0830 C.3   217  ARG217      0.1563
    165  C         14.8430   73.7470   72.2540 C.2   217  ARG217      0.2260
    166  O         14.3800   72.8400   72.9400 O.2   217  ARG217     -0.2867
    167  CB        12.5710   73.9750   71.2580 C.3   217  ARG217      0.0307
    168  CG        11.6250   74.6880   70.2990 C.3   217  ARG217      0.0489
    169  CD        11.6490   76.1980   70.4920 C.3   217  ARG217      0.2205
    170  NE        10.5150   76.8210   69.8210 N.pl3 217  ARG217     -0.0865
    171  CZ        10.1340   78.0820   69.9960 C.cat 217  ARG217      0.5346
    172  NH1       10.8010   78.8750   70.8250 N.pl3 217  ARG217      0.1354
    173  NH2        9.0600   78.5470   69.3640 N.pl3 217  ARG217      0.1354
    174  N         16.6690   73.1540   75.8920 N.3   219  GLY219     -0.1210
    175  CA        16.1580   73.3180   77.2330 C.3   219  GLY219      0.1956
    176  C         16.8970   74.5090   77.8180 C.2   219  GLY219      0.2612
    177  O         18.0680   74.7430   77.4930 O.2   219  GLY219     -0.2717
    178  N         16.2240   75.2800   78.6630 N.am  220  VAL220     -0.1965
    179  CA        16.8480   76.4360   79.2770 C.3   220  VAL220      0.1727
    180  C         17.0710   76.1710   80.7650 C.2   220  VAL220      0.2616
    181  O         16.1690   75.6950   81.4660 O.2   220  VAL220     -0.2715
    182  CB        15.9890   77.7010   79.1070 C.3   220  VAL220      0.0290
    183  CG1       16.7870   78.9150   79.5770 C.3   220  VAL220      0.0023
    184  CG2       15.5710   77.8600   77.6410 C.3   220  VAL220      0.0023
    185  N         18.2750   76.4900   81.2390 N.am  221  TYR221     -0.1974
    186  CA        18.6490   76.2550   82.6330 C.3   221  TYR221      0.1639
    187  C         19.2300   77.4890   83.3110 C.2   221  TYR221      0.2290
    188  O         19.7430   78.3890   82.6540 O.2   221  TYR221     -0.2864
    189  CB        19.6990   75.1380   82.7080 C.3   221  TYR221      0.0560
    190  CG        19.3000   73.8460   82.0360 C.ar  221  TYR221     -0.0198
    191  CD1       19.1880   73.7570   80.6490 C.ar  221  TYR221     -0.0009
    192  CD2       19.0270   72.7130   82.7890 C.ar  221  TYR221     -0.0009
    193  CE1       18.8090   72.5630   80.0350 C.ar  221  TYR221      0.0417
    194  CE2       18.6540   71.5280   82.1910 C.ar  221  TYR221      0.0417
    195  CZ        18.5470   71.4530   80.8180 C.ar  221  TYR221      0.1957
    196  OH        18.1940   70.2530   80.2340 O.3   221  TYR221     -0.2866
@<TRIPOS>BOND
     1   173   171    1
     2   170   171    2
     3   170   169    1
     4   163   164    1
     5   171   172    1
     6   151   150   ar
     7   168   169    1
     8   168   167    1
     9    45    46    1
    10   164   167    1
    11   164   165    1
    12    47    46    1
    13    47    48    2
    14   152   150   ar
    15   150   149    1
    16    46    49    1
    17   165   166    2
    18   149   148    1
    19    49    50    1
    20    50    51   ar
    21    50    52   ar
    22    51    53   ar
    23   148   145    1
    24   160   159    2
    25    57    58    1
    26    52    54   ar
    27   147   146    2
    28    53    55   ar
    29    60    59    2
    30    54    55   ar
    31    55    56    1
    32   159   158    1
    33   146   145    1
    34   146   153   am
    35   145   144    1
    36    63    65   ar
    37    63    62   ar
    38    59    58    1
    39    58    61    1
    40   154   153    1
    41   154   155    1
    42   157   158    1
    43   157   155   am
    44    65    66   ar
    45   144   142   am
    46   158   161    1
    47   155   156    2
    48    61    62    1
    49   174   175    1
    50    62    64   ar
    51    71    72    1
    52    71    68    1
    53    74    72   ar
    54    67    68    1
    55   161   162    1
    56    72    73   ar
    57    66    64   ar
    58   142   143    2
    59   142   141    1
    60    68    69    1
    61   175   176    1
    62   138   139   ar
    63   138   136   ar
    64   139   137   ar
    65   177   176    2
    66   141   140    1
    67   184   182    1
    68   176   178   am
    69   162    85    1
    70    69    70    2
    71    69    75   am
    72   136   133   ar
    73   137   135   ar
    74    43    42   ar
    75   178   179    1
    76   140   128   am
    77    78    77    2
    78   182   179    1
    79   182   183    1
    80    85    84    1
    81    75    76    1
    82   179   180    1
    83   133   135   ar
    84   133   131   ar
    85   129   128    2
    86   135   134   ar
    87    42    41    1
    88    42    44   ar
    89   128   127    1
    90   193   191   ar
    91   193   195   ar
    92    84    81    1
    93    77    76    1
    94    77    80   am
    95   196   195    1
    96    41    40    1
    97    76    79    1
    98   191   190   ar
    99    40    37    1
   100    39    38    2
   101   180   185   am
   102   180   181    2
   103    81    80    1
   104    81    82    1
   105   131   130    1
   106   131   132   ar
   107   195   194   ar
   108   134   132   ar
   109   130   127    1
   110   185   186    1
   111   127   126    1
   112    37    38    1
   113    37    36    1
   114   190   189    1
   115   190   192   ar
   116    86    82   am
   117    86    87    1
   118    82    83    2
   119   194   192   ar
   120   126   122   am
   121   186   189    1
   122   186   187    1
   123   188   187    2
   124    36    33   am
   125   106   104   ar
   126    90    87    1
   127    90    91    1
   128    87    88    1
   129   122   123    2
   130   122   121    1
   131    34    33    2
   132    92    91    1
   133    92    93    1
   134    33    32    1
   135   119   117    1
   136   104   103    1
   137   104   105   ar
   138    89    88    2
   139   120   121    1
   140   120   115   am
   141   124   121    1
   142   124   125    1
   143    88    95   am
   144   103   100    1
   145    94    93    1
   146    35    32    1
   147   118   117    1
   148   114   117    1
   149   114   115    1
   150   114   113    1
   151    32    31    1
   152   115   116    2
   153    95    96    1
   154    99   100    1
   155    99    97   am
   156   100   101    1
   157   112   111    1
   158   107   101   am
   159   107   108    1
   160   101   102    2
   161    96    97    1
   162    97    98    2
   163   108   111    1
   164   108   109    1
   165    23    24   ar
   166    23    21   ar
   167    24    22   ar
   168    21    20   ar
   169    22    20   ar
   170    20    19    1
   171   109   110    2
   172    19    16    1
   173    16    17    1
   174    16    15    1
   175    18    17    2
   176    17    25   am
   177    30    14    1
   178    30    29    1
   179    14    13    1
   180     4     3    2
   181    25    26    1
   182    10    13    1
   183    10    11    1
   184    10     9    1
   185    26    29    1
   186    26    27    1
   187     3     9   am
   188     3     2    1
   189    11    12    2
   190     2     1    1
   191     2     5    1
   192    27    28    2
   193     7     6    1
   194     6     5    1
   195     6     8    1
