@<TRIPOS>MOLECULE
tmp/1ztlA00.pdb
 206 205 0 0 0
SMALL
GASTEIGER

@<TRIPOS>ATOM
      1  N          6.5190   53.7130   33.3350 N.3    28  LEU28      -0.1231
      2  CA         7.8760   53.9700   32.8850 C.3    28  LEU28       0.1693
      3  C          8.3680   52.8860   31.9420 C.2    28  LEU28       0.2592
      4  O          8.7980   53.1690   30.8270 O.2    28  LEU28      -0.2718
      5  CB         8.8160   54.0510   34.0860 C.3    28  LEU28       0.0284
      6  CG        10.3080   54.0330   33.7560 C.3    28  LEU28       0.0019
      7  CD1       10.6700   55.2490   32.9240 C.3    28  LEU28       0.0001
      8  CD2       11.1020   54.0140   35.0500 C.3    28  LEU28       0.0001
      9  N          8.2850   51.6450   32.4050 N.am   29  CYS29      -0.1970
     10  CA         8.7380   50.5050   31.6430 C.3    29  CYS29       0.1712
     11  C          7.9580   49.2450   31.9690 C.2    29  CYS29       0.2296
     12  O          7.1070   49.2360   32.8590 O.2    29  CYS29      -0.2864
     13  CB        10.2130   50.2750   31.9290 C.3    29  CYS29       0.0983
     14  SG        11.2970   51.4040   31.0180 S.3    29  CYS29      -0.0798
     15  N         18.4770   50.3990   30.7540 N.3    44  HIS44      -0.1226
     16  CA        18.3190   51.7270   30.2020 C.3    44  HIS44       0.1752
     17  C         16.9840   52.3320   30.6540 C.2    44  HIS44       0.2596
     18  O         16.6370   53.4640   30.3070 O.2    44  HIS44      -0.2718
     19  CB        18.3270   51.6400   28.6920 C.3    44  HIS44       0.0759
     20  CG        16.9900   51.3250   28.1160 C.ar   44  HIS44       0.0818
     21  ND1       16.6650   50.0970   27.5860 N.ar   44  HIS44      -0.2268
     22  CD2       15.8660   52.0620   28.0600 C.ar   44  HIS44       0.1154
     23  CE1       15.3910   50.0750   27.2320 C.ar   44  HIS44       0.1986
     24  NE2       14.8860   51.2560   27.5130 N.ar   44  HIS44      -0.2212
     25  N         16.2080   51.5670   31.4060 N.am   45  CYS45      -0.1970
     26  CA        14.9160   52.0320   31.8910 C.3    45  CYS45       0.1712
     27  C         15.0630   52.8810   33.1530 C.2    45  CYS45       0.2296
     28  O         14.1020   53.4880   33.6380 O.2    45  CYS45      -0.2864
     29  CB        14.0060   50.8300   32.1800 C.3    45  CYS45       0.0983
     30  SG        12.9920   50.3170   30.7540 S.3    45  CYS45      -0.0798
     31  N         17.3150   55.4630   33.4600 N.3    47  TYR47      -0.1241
     32  CA        18.0940   56.6230   33.1260 C.3    47  TYR47       0.1605
     33  C         17.4990   57.8630   33.8000 C.2    47  TYR47       0.2264
     34  O         16.4030   58.3140   33.4480 O.2    47  TYR47      -0.2867
     35  CB        18.1160   56.8170   31.6180 C.3    47  TYR47       0.0534
     36  CG        18.7820   58.1030   31.2410 C.ar   47  TYR47      -0.0201
     37  CD1       20.1670   58.1970   31.1710 C.ar   47  TYR47      -0.0009
     38  CD2       18.0280   59.2490   31.0310 C.ar   47  TYR47      -0.0009
     39  CE1       20.7870   59.3970   30.9080 C.ar   47  TYR47       0.0417
     40  CE2       18.6290   60.4610   30.7660 C.ar   47  TYR47       0.0417
     41  CZ        20.0190   60.5290   30.7060 C.ar   47  TYR47       0.1957
     42  OH        20.6340   61.7350   30.4480 O.3    47  TYR47      -0.2866
     43  N         26.8930   47.3680   31.5890 N.3    85  TYR85      -0.1241
     44  CA        25.9380   48.1630   30.8400 C.3    85  TYR85       0.1605
     45  C         26.3960   49.6070   30.6890 C.2    85  TYR85       0.2264
     46  O         26.8840   50.2130   31.6410 O.2    85  TYR85      -0.2867
     47  CB        24.5710   48.1740   31.5320 C.3    85  TYR85       0.0534
     48  CG        23.6530   49.2300   30.9540 C.ar   85  TYR85      -0.0201
     49  CD1       23.0650   49.0590   29.7070 C.ar   85  TYR85      -0.0009
     50  CD2       23.4350   50.4270   31.6170 C.ar   85  TYR85      -0.0009
     51  CE1       22.2920   50.0500   29.1390 C.ar   85  TYR85       0.0417
     52  CE2       22.6640   51.4260   31.0530 C.ar   85  TYR85       0.0417
     53  CZ        22.0970   51.2310   29.8140 C.ar   85  TYR85       0.1957
     54  OH        21.3440   52.2260   29.2360 O.3    85  TYR85      -0.2866
     55  N         24.8170   51.3780   27.5130 N.3    87  MET87      -0.1230
     56  CA        23.6440   51.8160   26.7790 C.3    87  MET87       0.1702
     57  C         22.9800   50.6950   25.9990 C.2    87  MET87       0.2592
     58  O         23.6400   49.7800   25.5120 O.2    87  MET87      -0.2718
     59  CB        23.9960   52.9680   25.8470 C.3    87  MET87       0.0401
     60  CG        25.1210   52.6860   24.8920 C.3    87  MET87       0.0596
     61  SD        25.6190   54.2770   24.2420 S.3    87  MET87      -0.1393
     62  CE        25.6110   55.2460   25.7780 C.3    87  MET87       0.0692
     63  N         21.6590   50.7900   25.9000 N.am   88  ALA88      -0.1966
     64  CA        20.8370   49.8120   25.2100 C.3    88  ALA88       0.1728
     65  C         21.4880   49.2230   23.9650 C.2    88  ALA88       0.2616
     66  O         21.7230   48.0190   23.8860 O.2    88  ALA88      -0.2715
     67  CB        19.5010   50.4460   24.8460 C.3    88  ALA88       0.0334
     68  N         21.7800   50.0890   23.0010 N.am   89  GLU89      -0.1977
     69  CA        22.3630   49.6840   21.7310 C.3    89  GLU89       0.1602
     70  C         23.6880   48.9290   21.8000 C.2    89  GLU89       0.2287
     71  O         24.0550   48.2570   20.8380 O.2    89  GLU89      -0.2864
     72  CB        22.5210   50.9060   20.8320 C.3    89  GLU89       0.0415
     73  CG        21.2460   51.7100   20.6690 C.3    89  GLU89       0.1163
     74  CD        21.4860   53.0560   20.0150 C.2    89  GLU89       0.3649
     75  OE1       21.7180   53.1030   18.7910 O.co2  89  GLU89      -0.2457
     76  OE2       21.4510   54.0730   20.7300 O.co2  89  GLU89      -0.2457
     77  N          5.6900   45.1670   16.2000 N.3   182  ASP182     -0.1225
     78  CA         6.9330   45.3810   16.9290 C.3   182  ASP182      0.1805
     79  C          6.6990   46.0800   18.2660 C.2   182  ASP182      0.2598
     80  O          5.6080   46.5740   18.5490 O.2   182  ASP182     -0.2718
     81  CB         7.8560   46.2430   16.0530 C.3   182  ASP182      0.1424
     82  CG         9.2740   46.3310   16.5780 C.2   182  ASP182      0.3668
     83  OD1        9.6330   45.5790   17.5040 O.co2 182  ASP182     -0.2456
     84  OD2       10.0430   47.1520   16.0460 O.co2 182  ASP182     -0.2456
     85  N          7.7360   46.1070   19.0920 N.am  183  ALA183     -0.1966
     86  CA         7.6680   46.7870   20.3700 C.3   183  ALA183      0.1728
     87  C          7.8950   48.2590   20.0410 C.2   183  ALA183      0.2616
     88  O          8.3490   48.5940   18.9480 O.2   183  ALA183     -0.2715
     89  CB         8.7730   46.2890   21.2830 C.3   183  ALA183      0.0334
     90  N          7.5720   49.1400   20.9740 N.am  184  CYS184     -0.1954
     91  CA         7.7920   50.5580   20.7550 C.3   184  CYS184      0.1843
     92  C          7.9950   51.2310   22.0980 C.2   184  CYS184      0.2625
     93  O          7.9420   50.5740   23.1320 O.2   184  CYS184     -0.2714
     94  CB         6.6200   51.1910   20.0060 C.3   184  CYS184      0.0997
     95  SG         7.0830   52.7380   19.1530 S.3   184  CYS184     -0.0797
     96  N          8.2360   52.5360   22.0850 N.am  185  LYS185     -0.1963
     97  CA         8.4790   53.2590   23.3230 C.3   185  LYS185      0.1728
     98  C          7.4520   52.9150   24.4020 C.2   185  LYS185      0.2617
     99  O          6.2510   53.0280   24.1840 O.2   185  LYS185     -0.2715
    100  CB         8.4860   54.7670   23.0570 C.3   185  LYS185      0.0311
    101  CG         8.8160   55.5930   24.3010 C.3   185  LYS185      0.0038
    102  CD         9.0130   57.0540   23.9700 C.3   185  LYS185      0.0206
    103  CE         9.3650   57.8670   25.2100 C.3   185  LYS185      0.1093
    104  NZ         9.6350   59.2910   24.8500 N.3   185  LYS185     -0.1314
    105  N          7.9310   52.4890   25.5650 N.am  186  GLY186     -0.1940
    106  CA         7.0390   52.1350   26.6540 C.3   186  GLY186      0.2014
    107  C          7.0780   50.6490   26.9460 C.2   186  GLY186      0.2639
    108  O          6.8420   50.2170   28.0740 O.2   186  GLY186     -0.2714
    109  N          7.3770   49.8600   25.9230 N.am  187  ASP187     -0.1957
    110  CA         7.4440   48.4180   26.0750 C.3   187  ASP187      0.1840
    111  C          8.7960   47.9890   26.5950 C.2   187  ASP187      0.2622
    112  O          8.9960   46.8290   26.9550 O.2   187  ASP187     -0.2715
    113  CB         7.1420   47.7520   24.7390 C.3   187  ASP187      0.1450
    114  CG         5.7670   48.1110   24.2320 C.2   187  ASP187      0.3671
    115  OD1        4.8100   47.9490   25.0210 O.co2 187  ASP187     -0.2456
    116  OD2        5.6540   48.5510   23.0650 O.co2 187  ASP187     -0.2456
    117  N          9.7260   48.9330   26.6310 N.am  188  SER188     -0.1950
    118  CA        11.0670   48.6640   27.1320 C.3   188  SER188      0.1924
    119  C         11.0110   47.9450   28.4770 C.2   188  SER188      0.2314
    120  O         10.1690   48.2620   29.3240 O.2   188  SER188     -0.2863
    121  CB        11.8190   49.9770   27.2590 C.3   188  SER188      0.2116
    122  OG        12.2210   50.3640   25.9700 O.3   188  SER188     -0.2180
    123  N         12.6980   43.4660   26.0430 N.3   206  THR206     -0.1203
    124  CA        12.5760   44.5520   25.0780 C.3   206  THR206      0.1994
    125  C         13.6290   45.6120   25.3440 C.2   206  THR206      0.2619
    126  O         13.6730   46.2050   26.4230 O.2   206  THR206     -0.2717
    127  CB        11.1780   45.1670   25.1380 C.3   206  THR206      0.1784
    128  OG1       10.2050   44.1300   24.9110 O.3   206  THR206     -0.2211
    129  CG2       11.0300   46.2520   24.0790 C.3   206  THR206      0.0376
    130  N         14.4740   45.8560   24.3440 N.am  207  SER207     -0.1937
    131  CA        15.5640   46.8040   24.5070 C.3   207  SER207      0.2055
    132  C         15.5810   48.0080   23.5620 C.2   207  SER207      0.2643
    133  O         15.4410   49.1370   24.0110 O.2   207  SER207     -0.2714
    134  CB        16.8870   46.0430   24.4150 C.3   207  SER207      0.2130
    135  OG        17.9800   46.8890   24.7080 O.3   207  SER207     -0.2179
    136  N         15.7460   47.7840   22.2620 N.am  208  TRP208     -0.1959
    137  CA        15.7800   48.9090   21.3340 C.3   208  TRP208      0.1771
    138  C         15.4680   48.5680   19.8910 C.2   208  TRP208      0.2620
    139  O         15.2280   47.4100   19.5510 O.2   208  TRP208     -0.2715
    140  CB        17.1510   49.5950   21.3820 C.3   208  TRP208      0.0590
    141  CG        18.2950   48.7460   20.9410 C.ar  208  TRP208      0.0006
    142  CD1       18.9440   47.8050   21.6770 C.ar  208  TRP208      0.0946
    143  CD2       18.9280   48.7590   19.6560 C.ar  208  TRP208      0.0152
    144  NE1       19.9480   47.2330   20.9340 N.ar  208  TRP208     -0.2442
    145  CE2       19.9610   47.8040   19.6910 C.ar  208  TRP208      0.0810
    146  CE3       18.7300   49.4940   18.4840 C.ar  208  TRP208      0.0012
    147  CZ2       20.7860   47.5540   18.5960 C.ar  208  TRP208      0.0191
    148  CZ3       19.5560   49.2440   17.3940 C.ar  208  TRP208      0.0001
    149  CH2       20.5720   48.2880   17.4620 C.ar  208  TRP208      0.0015
    150  N         15.4870   49.6010   19.0500 N.am  209  GLY209     -0.1940
    151  CA        15.2240   49.4410   17.6310 C.3   209  GLY209      0.2014
    152  C         15.2470   50.7840   16.9190 C.2   209  GLY209      0.2639
    153  O         15.1990   51.8330   17.5610 O.2   209  GLY209     -0.2714
    154  N         15.3410   50.7680   15.5940 N.am  210  GLU210     -0.1963
    155  CA        15.3400   52.0140   14.8340 C.3   210  GLU210      0.1733
    156  C         13.8890   52.3020   14.4700 C.2   210  GLU210      0.2617
    157  O         13.3390   51.6950   13.5530 O.2   210  GLU210     -0.2715
    158  CB        16.1800   51.8730   13.5600 C.3   210  GLU210      0.0429
    159  CG        16.2520   53.1550   12.7590 C.3   210  GLU210      0.1163
    160  CD        16.7790   54.3080   13.5910 C.2   210  GLU210      0.3649
    161  OE1       17.9570   54.2470   14.0090 O.co2 210  GLU210     -0.2457
    162  OE2       16.0170   55.2700   13.8350 O.co2 210  GLU210     -0.2457
    163  N         13.2650   53.2220   15.1950 N.am  211  GLY211     -0.1940
    164  CA        11.8700   53.5270   14.9360 C.3   211  GLY211      0.2014
    165  C         11.0330   52.3910   15.4970 C.2   211  GLY211      0.2639
    166  O         11.4710   51.6870   16.4100 O.2   211  GLY211     -0.2714
    167  N          9.8380   52.1920   14.9570 N.am  212  CYS212     -0.1967
    168  CA         8.9690   51.1140   15.4270 C.3   212  CYS212      0.1712
    169  C          8.2280   50.4450   14.2820 C.2   212  CYS212      0.2296
    170  O          7.5150   51.1050   13.5250 O.2   212  CYS212     -0.2864
    171  CB         7.9470   51.6480   16.4370 C.3   212  CYS212      0.0983
    172  SG         8.6780   52.2080   18.0070 S.3   212  CYS212     -0.0798
    173  N         13.6860   46.3630    9.8950 N.3   217  ARG217     -0.1245
    174  CA        14.2080   46.9510   11.1260 C.3   217  ARG217      0.1563
    175  C         13.6100   46.1670   12.2870 C.2   217  ARG217      0.2260
    176  O         12.6730   46.6260   12.9500 O.2   217  ARG217     -0.2867
    177  CB        13.7960   48.4130   11.2450 C.3   217  ARG217      0.0307
    178  CG        14.4830   49.3370   10.2710 C.3   217  ARG217      0.0489
    179  CD        15.9820   49.3920   10.5120 C.3   217  ARG217      0.2205
    180  NE        16.5660   50.5800    9.8970 N.pl3 217  ARG217     -0.0865
    181  CZ        17.8420   50.9320   10.0050 C.cat 217  ARG217      0.5346
    182  NH1       18.6850   50.1820   10.7060 N.pl3 217  ARG217      0.1354
    183  NH2       18.2700   52.0430    9.4240 N.pl3 217  ARG217      0.1354
    184  N         13.0550   44.2490   15.9390 N.3   219  GLY219     -0.1210
    185  CA        13.1910   44.7130   17.3010 C.3   219  GLY219      0.1956
    186  C         14.4010   44.0200   17.9050 C.2   219  GLY219      0.2612
    187  O         14.6860   42.8620   17.6020 O.2   219  GLY219     -0.2717
    188  N         15.1350   44.7260   18.7500 N.am  220  VAL220     -0.1965
    189  CA        16.3100   44.1360   19.3740 C.3   220  VAL220      0.1727
    190  C         16.0170   43.9090   20.8430 C.2   220  VAL220      0.2616
    191  O         15.5340   44.8020   21.5430 O.2   220  VAL220     -0.2715
    192  CB        17.5510   45.0530   19.2460 C.3   220  VAL220      0.0290
    193  CG1       18.7870   44.3090   19.7190 C.3   220  VAL220      0.0023
    194  CG2       17.7250   45.5080   17.8020 C.3   220  VAL220      0.0023
    195  N         16.3170   42.7060   21.3090 N.am  221  TYR221     -0.1974
    196  CA        16.0680   42.3480   22.6950 C.3   221  TYR221      0.1639
    197  C         17.2970   41.7560   23.3550 C.2   221  TYR221      0.2290
    198  O         18.1920   41.2340   22.6830 O.2   221  TYR221     -0.2864
    199  CB        14.9420   41.3160   22.7740 C.3   221  TYR221      0.0560
    200  CG        13.6660   41.7260   22.0840 C.ar  221  TYR221     -0.0198
    201  CD1       13.5960   41.8190   20.7010 C.ar  221  TYR221     -0.0009
    202  CD2       12.5280   42.0200   22.8210 C.ar  221  TYR221     -0.0009
    203  CE1       12.4280   42.1950   20.0690 C.ar  221  TYR221      0.0417
    204  CE2       11.3560   42.3950   22.2040 C.ar  221  TYR221      0.0417
    205  CZ        11.3050   42.4880   20.8270 C.ar  221  TYR221      0.1957
    206  OH        10.1450   42.9260   20.2190 O.3   221  TYR221     -0.2866
@<TRIPOS>BOND
     1   183   181    1
     2   173   174    1
     3   180   181    2
     4   180   179    1
     5   181   182    1
     6   178   179    1
     7   178   177    1
     8   174   177    1
     9   174   175    1
    10   175   176    2
    11   159   158    1
    12   159   160    1
    13   170   169    2
    14   157   156    2
    15   158   155    1
    16   160   162   ar
    17   160   161   ar
    18   169   168    1
    19   156   155    1
    20   156   163   am
    21   155   154    1
    22   164   163    1
    23   164   165    1
    24   167   168    1
    25   167   165   am
    26   168   171    1
    27   165   166    2
    28   154   152   am
    29   184   185    1
    30    84    82   ar
    31    81    82    1
    32    81    78    1
    33    77    78    1
    34   171   172    1
    35    82    83   ar
    36   152   153    2
    37   152   151    1
    38    78    79    1
    39   185   186    1
    40   148   149   ar
    41   148   146   ar
    42   149   147   ar
    43   187   186    2
    44   151   150    1
    45   194   192    1
    46   186   188   am
    47   172    95    1
    48    79    80    2
    49    79    85   am
    50   146   143   ar
    51   147   145   ar
    52   188   189    1
    53    75    74   ar
    54    88    87    2
    55   150   138   am
    56    85    86    1
    57    95    94    1
    58   192   189    1
    59   192   193    1
    60   189   190    1
    61   139   138    2
    62   143   145   ar
    63   143   141   ar
    64   145   144   ar
    65   138   137    1
    66    94    91    1
    67    74    73    1
    68    74    76   ar
    69    87    86    1
    70    87    90   am
    71   203   201   ar
    72   203   205   ar
    73   206   205    1
    74    86    89    1
    75    73    72    1
    76   201   200   ar
    77    91    90    1
    78    91    92    1
    79   205   204   ar
    80    72    69    1
    81    71    70    2
    82   190   195   am
    83   190   191    2
    84   144   142   ar
    85   141   140    1
    86   141   142   ar
    87   195   196    1
    88   137   140    1
    89   137   136    1
    90    69    70    1
    91    69    68    1
    92   200   199    1
    93   200   202   ar
    94    96    92   am
    95    96    97    1
    96    92    93    2
    97   204   202   ar
    98   136   132   am
    99   198   197    2
   100   196   199    1
   101   196   197    1
   102    68    65   am
   103   100    97    1
   104   100   101    1
   105   116   114   ar
   106    97    98    1
   107   132   133    2
   108   132   131    1
   109    66    65    2
   110    65    64    1
   111   102   101    1
   112   102   103    1
   113   129   127    1
   114    99    98    2
   115   114   113    1
   116   114   115   ar
   117    61    60    1
   118    61    62    1
   119   130   131    1
   120   130   125   am
   121    98   105   am
   122   134   131    1
   123   134   135    1
   124   113   110    1
   125    67    64    1
   126   104   103    1
   127    60    59    1
   128   128   127    1
   129   124   127    1
   130   124   125    1
   131   124   123    1
   132    64    63    1
   133   125   126    2
   134    58    57    2
   135   105   106    1
   136    59    56    1
   137    63    57   am
   138   109   110    1
   139   109   107   am
   140   122   121    1
   141    57    56    1
   142   110   111    1
   143   111   117   am
   144   111   112    2
   145   117   118    1
   146   106   107    1
   147    56    55    1
   148   107   108    2
   149   118   121    1
   150   118   119    1
   151    23    24   ar
   152    23    21   ar
   153    24    22   ar
   154    21    20   ar
   155    22    20   ar
   156    20    19    1
   157   119   120    2
   158    19    16    1
   159    51    49   ar
   160    51    53   ar
   161    54    53    1
   162    49    48   ar
   163    53    52   ar
   164    16    17    1
   165    16    15    1
   166    18    17    2
   167    42    41    1
   168    17    25   am
   169    45    44    1
   170    45    46    2
   171    41    40   ar
   172    41    39   ar
   173    30    14    1
   174    30    29    1
   175    40    38   ar
   176     4     3    2
   177    44    47    1
   178    44    43    1
   179    39    37   ar
   180    48    47    1
   181    48    50   ar
   182    14    13    1
   183    38    36   ar
   184    52    50   ar
   185    37    36   ar
   186    36    35    1
   187    25    26    1
   188    35    32    1
   189    10    13    1
   190    10    11    1
   191    10     9    1
   192    26    29    1
   193    26    27    1
   194     3     9   am
   195     3     2    1
   196    11    12    2
   197     2     1    1
   198     2     5    1
   199     7     6    1
   200    32    31    1
   201    32    33    1
   202    27    28    2
   203    34    33    2
   204     6     5    1
   205     6     8    1
