@<TRIPOS>MOLECULE
tmp/1ztqB00.pdb
 201 200 0 0 0
SMALL
GASTEIGER

@<TRIPOS>ATOM
      1  N         -8.7870   53.3050   85.8570 N.3    68  TYR68      -0.1241
      2  CA        -7.5700   52.6470   85.4050 C.3    68  TYR68       0.1605
      3  C         -6.8010   53.8380   84.8300 C.2    68  TYR68       0.2264
      4  O         -6.4910   53.8900   83.6360 O.2    68  TYR68      -0.2867
      5  CB        -7.8610   51.6160   84.3150 C.3    68  TYR68       0.0534
      6  CG        -6.6720   50.7240   84.0670 C.ar   68  TYR68      -0.0201
      7  CD1       -6.1920   49.8890   85.0750 C.ar   68  TYR68      -0.0009
      8  CD2       -5.9780   50.7610   82.8580 C.ar   68  TYR68      -0.0009
      9  CE1       -5.0490   49.1200   84.8890 C.ar   68  TYR68       0.0417
     10  CE2       -4.8330   49.9930   82.6630 C.ar   68  TYR68       0.0417
     11  CZ        -4.3790   49.1770   83.6870 C.ar   68  TYR68       0.1957
     12  OH        -3.2550   48.4110   83.5220 O.3    68  TYR68      -0.2866
     13  N          5.9720   54.9850   81.0650 N.3    75  GLY75      -0.1210
     14  CA         5.1970   53.9340   81.7030 C.3    75  GLY75       0.1956
     15  C          4.0590   53.4370   80.8350 C.2    75  GLY75       0.2612
     16  O          4.2850   53.0150   79.6990 O.2    75  GLY75      -0.2717
     17  N          2.8360   53.4780   81.3670 N.am   76  LEU76      -0.1965
     18  CA         1.6500   53.0330   80.6280 C.3    76  LEU76       0.1728
     19  C          1.4600   53.9470   79.4330 C.2    76  LEU76       0.2616
     20  O          1.6750   55.1520   79.5400 O.2    76  LEU76      -0.2715
     21  CB         0.4050   53.1100   81.5090 C.3    76  LEU76       0.0311
     22  CG         0.3650   52.2920   82.8000 C.3    76  LEU76       0.0022
     23  CD1       -0.8340   52.7270   83.6470 C.3    76  LEU76       0.0001
     24  CD2        0.2940   50.7990   82.4610 C.3    76  LEU76       0.0001
     25  N          1.0540   53.3780   78.3020 N.am   77  LEU77      -0.1963
     26  CA         0.8480   54.1490   77.0840 C.3    77  LEU77       0.1728
     27  C         -0.5550   53.9730   76.5080 C.2    77  LEU77       0.2616
     28  O         -1.1600   54.9180   75.9980 O.2    77  LEU77      -0.2715
     29  CB         1.9000   53.7630   76.0290 C.3    77  LEU77       0.0311
     30  CG         2.2650   52.2880   75.8230 C.3    77  LEU77       0.0022
     31  CD1        2.9570   52.0880   74.4750 C.3    77  LEU77       0.0001
     32  CD2        3.1700   51.8360   76.9430 C.3    77  LEU77       0.0001
     33  N         -1.0700   52.7550   76.5840 N.am   78  ALA78      -0.1963
     34  CA        -2.3980   52.4710   76.0750 C.3    78  ALA78       0.1728
     35  C         -2.9140   51.2020   76.7120 C.2    78  ALA78       0.2616
     36  O         -2.1430   50.4360   77.2890 O.2    78  ALA78      -0.2715
     37  CB        -2.3560   52.3120   74.5530 C.3    78  ALA78       0.0334
     38  N         -4.2200   50.9830   76.6140 N.am   79  HIS79      -0.1959
     39  CA        -4.8190   49.7770   77.1630 C.3    79  HIS79       0.1787
     40  C         -6.2360   49.5890   76.6130 C.2    79  HIS79       0.2620
     41  O         -6.9140   50.5610   76.2730 O.2    79  HIS79      -0.2715
     42  CB        -4.8480   49.8530   78.6920 C.3    79  HIS79       0.0785
     43  CG        -5.8890   50.7840   79.2240 C.ar   79  HIS79       0.0821
     44  ND1       -7.2330   50.6000   78.9910 N.ar   79  HIS79      -0.2267
     45  CD2       -5.7880   51.8980   79.9850 C.ar   79  HIS79       0.1154
     46  CE1       -7.9170   51.5580   79.5880 C.ar   79  HIS79       0.1986
     47  NE2       -7.0630   52.3600   80.1990 N.ar   79  HIS79      -0.2212
     48  N         -6.6710   48.3340   76.5310 N.am   80  ALA80      -0.1977
     49  CA        -7.9930   48.0130   76.0170 C.3    80  ALA80       0.1597
     50  C         -8.6750   46.9140   76.8250 C.2    80  ALA80       0.2287
     51  O         -8.0200   46.1250   77.5100 O.2    80  ALA80      -0.2864
     52  CB        -7.8920   47.5980   74.5560 C.3    80  ALA80       0.0319
     53  N          1.0770   51.0410   65.2310 N.3   110  LEU110     -0.1231
     54  CA         1.5640   49.8110   65.8500 C.3   110  LEU110      0.1693
     55  C          0.9800   49.5750   67.2380 C.2   110  LEU110      0.2591
     56  O          0.6350   48.4470   67.5820 O.2   110  LEU110     -0.2718
     57  CB         3.0920   49.8000   65.9280 C.3   110  LEU110      0.0284
     58  CG         3.8780   49.5910   64.6240 C.3   110  LEU110      0.0019
     59  CD1        5.3580   49.5780   64.9640 C.3   110  LEU110      0.0001
     60  CD2        3.4900   48.2810   63.9490 C.3   110  LEU110      0.0001
     61  N          0.8640   50.6330   68.0330 N.am  111  VAL111     -0.1980
     62  CA         0.3010   50.4990   69.3780 C.3   111  VAL111      0.1595
     63  C         -1.1790   50.1240   69.2490 C.2   111  VAL111      0.2287
     64  O         -1.6780   49.2450   69.9600 O.2   111  VAL111     -0.2864
     65  CB         0.4360   51.8220   70.1790 C.3   111  VAL111      0.0276
     66  CG1       -0.1920   51.6740   71.5710 C.3   111  VAL111      0.0022
     67  CG2        1.8940   52.1800   70.3300 C.3   111  VAL111      0.0022
     68  N         -1.8360   46.4860   68.2650 N.3   114  HIS114     -0.1226
     69  CA        -1.6590   45.6230   69.4320 C.3   114  HIS114      0.1752
     70  C         -2.8530   45.7060   70.3800 C.2   114  HIS114      0.2595
     71  O         -3.3500   44.6880   70.8630 O.2   114  HIS114     -0.2718
     72  CB        -0.3880   46.0160   70.1860 C.3   114  HIS114      0.0759
     73  CG        -0.1510   45.2150   71.4300 C.ar  114  HIS114      0.0818
     74  ND1        0.6020   44.0610   71.4440 N.ar  114  HIS114     -0.2268
     75  CD2       -0.5670   45.4040   72.7040 C.ar  114  HIS114      0.1154
     76  CE1        0.6420   43.5780   72.6720 C.ar  114  HIS114      0.1986
     77  NE2       -0.0600   44.3750   73.4540 N.ar  114  HIS114     -0.2212
     78  N         -3.3110   46.9230   70.6400 N.am  115  GLU115     -0.1979
     79  CA        -4.4430   47.1370   71.5400 C.3   115  GLU115      0.1602
     80  C         -5.7540   46.5850   71.0040 C.2   115  GLU115      0.2287
     81  O         -6.6290   46.2090   71.7830 O.2   115  GLU115     -0.2864
     82  CB        -4.5820   48.6320   71.8570 C.3   115  GLU115      0.0415
     83  CG        -3.4150   49.1620   72.6790 C.3   115  GLU115      0.1163
     84  CD        -3.3500   48.5240   74.0560 C.2   115  GLU115      0.3649
     85  OE1       -2.2430   48.4410   74.6350 O.co2 115  GLU115     -0.2457
     86  OE2       -4.4200   48.1190   74.5670 O.co2 115  GLU115     -0.2457
     87  N         -6.2650   43.1410   71.9260 N.3   118  HIS118     -0.1241
     88  CA        -6.9210   42.8390   73.1960 C.3   118  HIS118      0.1621
     89  C         -8.4200   43.0020   73.0160 C.2   118  HIS118      0.2264
     90  O         -9.2030   42.1830   73.4940 O.2   118  HIS118     -0.2867
     91  CB        -6.4350   43.7690   74.3030 C.3   118  HIS118      0.0745
     92  CG        -5.0010   43.5670   74.6730 C.ar  118  HIS118      0.0817
     93  ND1       -4.4520   42.3160   74.8650 N.ar  118  HIS118     -0.2268
     94  CD2       -4.0080   44.4560   74.9080 C.ar  118  HIS118      0.1154
     95  CE1       -3.1820   42.4450   75.2040 C.ar  118  HIS118      0.1986
     96  NE2       -2.8890   43.7330   75.2380 N.ar  118  HIS118     -0.2212
     97  N         -1.3440   38.5130   75.8490 N.3   124  HIS124     -0.1241
     98  CA         0.0530   38.6310   75.4650 C.3   124  HIS124      0.1621
     99  C          0.6860   37.3330   75.0040 C.2   124  HIS124      0.2264
    100  O          0.3820   36.2510   75.5230 O.2   124  HIS124     -0.2867
    101  CB         0.8530   39.1870   76.6300 C.3   124  HIS124      0.0745
    102  CG         0.6960   40.6580   76.8150 C.ar  124  HIS124      0.0817
    103  ND1        1.0530   41.3010   77.9800 N.ar  124  HIS124     -0.2268
    104  CD2        0.2720   41.6220   75.9650 C.ar  124  HIS124      0.1154
    105  CE1        0.8580   42.5990   77.8400 C.ar  124  HIS124      0.1986
    106  NE2        0.3860   42.8200   76.6260 N.ar  124  HIS124     -0.2212
    107  N          8.6300   37.9920   68.7780 N.3   129  GLY129     -0.1210
    108  CA         8.4370   38.6500   67.4990 C.3   129  GLY129      0.1956
    109  C          6.9650   38.7890   67.1890 C.2   129  GLY129      0.2612
    110  O          6.5780   39.0710   66.0540 O.2   129  GLY129     -0.2717
    111  N          6.1400   38.5860   68.2110 N.am  130  ALA130     -0.1965
    112  CA         4.6930   38.6790   68.0630 C.3   130  ALA130      0.1728
    113  C          4.2230   40.1130   68.2770 C.2   130  ALA130      0.2616
    114  O          4.8300   40.8760   69.0360 O.2   130  ALA130     -0.2715
    115  CB         4.0060   37.7520   69.0620 C.3   130  ALA130      0.0334
    116  N          3.1460   40.4740   67.5880 N.am  131  LEU131     -0.1977
    117  CA         2.5780   41.7980   67.7140 C.3   131  LEU131      0.1596
    118  C          2.0170   41.8990   69.1200 C.2   131  LEU131      0.2287
    119  O          2.0320   42.9660   69.7220 O.2   131  LEU131     -0.2864
    120  CB         1.4590   41.9960   66.6880 C.3   131  LEU131      0.0297
    121  CG         0.5990   43.2620   66.8060 C.3   131  LEU131      0.0022
    122  CD1        1.4610   44.5130   66.6630 C.3   131  LEU131      0.0001
    123  CD2       -0.4750   43.2170   65.7330 C.3   131  LEU131      0.0001
    124  N          3.2620   40.5450   71.7410 N.3   133  PHE133     -0.1228
    125  CA         4.3010   40.4110   72.7450 C.3   133  PHE133      0.1721
    126  C          4.1080   41.6770   73.5670 C.2   133  PHE133      0.2437
    127  O          3.6760   42.6910   73.0330 O.2   133  PHE133     -0.2733
    128  CB         5.6780   40.3970   72.0770 C.3   133  PHE133      0.0547
    129  CG         6.8010   40.0430   73.0070 C.ar  133  PHE133     -0.0202
    130  CD1        7.6610   41.0210   73.4860 C.ar  133  PHE133     -0.0042
    131  CD2        7.0050   38.7280   73.3920 C.ar  133  PHE133     -0.0042
    132  CE1        8.7120   40.6970   74.3290 C.ar  133  PHE133     -0.0003
    133  CE2        8.0520   38.3890   74.2360 C.ar  133  PHE133     -0.0003
    134  CZ         8.9090   39.3730   74.7060 C.ar  133  PHE133     -0.0000
    135  N          4.4230   41.6420   74.8730 N.am  134  PRO134     -0.2718
    136  CA         4.2290   42.8540   75.6830 C.3   134  PRO134      0.1535
    137  C          5.2320   44.0080   75.5120 C.2   134  PRO134      0.2598
    138  O          5.1780   44.9970   76.2430 O.2   134  PRO134     -0.2715
    139  CB         4.1770   42.2990   77.1100 C.3   134  PRO134      0.0310
    140  CG         5.1380   41.1220   77.0400 C.3   134  PRO134      0.0237
    141  CD         4.7600   40.4780   75.7190 C.3   134  PRO134      0.0939
    142  N          6.1240   43.9070   74.5320 N.am  135  ILE135     -0.1964
    143  CA         7.1090   44.9650   74.3330 C.3   135  ILE135      0.1727
    144  C          6.9730   45.7200   73.0140 C.2   135  ILE135      0.2616
    145  O          7.0660   45.1380   71.9410 O.2   135  ILE135     -0.2715
    146  CB         8.5420   44.4130   74.4310 C.3   135  ILE135      0.0290
    147  CG1        8.7990   43.8660   75.8380 C.3   135  ILE135      0.0022
    148  CG2        9.5310   45.5150   74.1430 C.3   135  ILE135      0.0023
    149  CD1       10.1420   43.1580   75.9770 C.3   135  ILE135      0.0001
    150  N          6.7630   47.0300   73.1170 N.am  136  TYR136     -0.1960
    151  CA         6.6260   47.8930   71.9560 C.3   136  TYR136      0.1771
    152  C          7.9540   47.9610   71.1990 C.2   136  TYR136      0.2620
    153  O          9.0110   48.0850   71.8130 O.2   136  TYR136     -0.2715
    154  CB         6.2020   49.2980   72.3960 C.3   136  TYR136      0.0574
    155  CG         6.3330   50.3130   71.2950 C.ar  136  TYR136     -0.0198
    156  CD1        7.5060   51.0530   71.1430 C.ar  136  TYR136     -0.0009
    157  CD2        5.3050   50.4950   70.3630 C.ar  136  TYR136     -0.0009
    158  CE1        7.6540   51.9510   70.0850 C.ar  136  TYR136      0.0417
    159  CE2        5.4440   51.3880   69.3030 C.ar  136  TYR136      0.0417
    160  CZ         6.6190   52.1100   69.1700 C.ar  136  TYR136      0.1957
    161  OH         6.7590   52.9850   68.1230 O.3   136  TYR136     -0.2866
    162  N          7.8960   47.8930   69.8700 N.am  137  THR137     -0.1951
    163  CA         9.1080   47.9290   69.0540 C.3   137  THR137      0.1897
    164  C          8.9170   48.6780   67.7360 C.2   137  THR137      0.2313
    165  O          7.9080   48.5110   67.0500 O.2   137  THR137     -0.2863
    166  CB         9.5980   46.5070   68.6800 C.3   137  THR137      0.1794
    167  OG1        9.0690   46.1530   67.3990 O.3   137  THR137     -0.2208
    168  CG2        9.1330   45.4820   69.6930 C.3   137  THR137      0.0378
    169  N         10.4910   49.0290   64.1060 N.3   139  THR139     -0.1218
    170  CA        11.4160   48.4370   63.1430 C.3   139  THR139      0.1862
    171  C         11.9960   49.4300   62.1530 C.2   139  THR139      0.2287
    172  O         13.1370   49.2860   61.7090 O.2   139  THR139     -0.2866
    173  CB        10.7310   47.3250   62.3340 C.3   139  THR139      0.1770
    174  OG1        9.4980   47.8250   61.7930 O.3   139  THR139     -0.2211
    175  CG2       10.4580   46.1040   63.2190 C.3   139  THR139      0.0375
    176  N          4.2080   46.3880   57.1490 N.3   144  PHE144     -0.1227
    177  CA         3.9690   45.5890   58.3370 C.3   144  PHE144      0.1736
    178  C          3.2020   44.3060   58.0330 C.2   144  PHE144      0.2595
    179  O          2.0660   44.3430   57.5590 O.2   144  PHE144     -0.2718
    180  CB         3.2010   46.3910   59.3870 C.3   144  PHE144      0.0547
    181  CG         2.8300   45.5880   60.6010 C.ar  144  PHE144     -0.0202
    182  CD1        1.6120   44.9090   60.6590 C.ar  144  PHE144     -0.0042
    183  CD2        3.7170   45.4630   61.6600 C.ar  144  PHE144     -0.0042
    184  CE1        1.2860   44.1160   61.7570 C.ar  144  PHE144     -0.0003
    185  CE2        3.4010   44.6730   62.7640 C.ar  144  PHE144     -0.0003
    186  CZ         2.1800   43.9960   62.8120 C.ar  144  PHE144     -0.0000
    187  N          3.8300   43.1700   58.3050 N.am  145  MET145     -0.1979
    188  CA         3.1830   41.8810   58.0860 C.3   145  MET145      0.1605
    189  C          2.8170   41.3020   59.4520 C.2   145  MET145      0.2287
    190  O          3.6590   41.2460   60.3430 O.2   145  MET145     -0.2864
    191  CB         4.1570   40.9670   57.3850 C.3   145  MET145      0.0413
    192  CG         3.4850   40.0870   56.3290 C.3   145  MET145      0.0598
    193  SD         4.0510   38.4450   56.7930 S.3   145  MET145     -0.1393
    194  CE         2.4100   37.9200   57.3130 C.3   145  MET145      0.0692
    195  N          2.6580   38.8420   62.1130 N.3   147  PRO147     -0.2116
    196  CA         3.3980   37.5980   62.3650 C.3   147  PRO147      0.1372
    197  C          2.5100   36.3710   62.5390 C.2   147  PRO147      0.2244
    198  O          1.4110   36.4650   63.0750 O.2   147  PRO147     -0.2868
    199  CB         4.2010   37.9250   63.6190 C.3   147  PRO147      0.0268
    200  CG         4.4030   39.4050   63.4910 C.3   147  PRO147      0.0207
    201  CD         3.0320   39.8670   63.0960 C.3   147  PRO147      0.0892
@<TRIPOS>BOND
     1   192   193    1
     2   192   191    1
     3   193   194    1
     4   176   177    1
     5   191   188    1
     6   179   178    2
     7   178   187   am
     8   178   177    1
     9   188   187    1
    10   188   189    1
    11   177   180    1
    12   180   181    1
    13   189   190    2
    14   181   182   ar
    15   181   183   ar
    16   182   184   ar
    17   183   185   ar
    18   172   171    2
    19   184   186   ar
    20   174   173    1
    21   195   196    1
    22   195   201    1
    23   171   170    1
    24   173   170    1
    25   173   175    1
    26   196   197    1
    27   196   199    1
    28   197   198    2
    29   185   186   ar
    30   201   200    1
    31   170   169    1
    32   200   199    1
    33    60    58    1
    34    58    59    1
    35    58    57    1
    36    53    54    1
    37   123   121    1
    38    54    57    1
    39    54    55    1
    40   110   109    2
    41   122   121    1
    42   120   121    1
    43   120   117    1
    44   165   164    2
    45   109   108    1
    46   109   111   am
    47    55    56    2
    48    55    61   am
    49   167   166    1
    50   108   107    1
    51   116   117    1
    52   116   113   am
    53   117   118    1
    54   164   163    1
    55    61    62    1
    56   112   111    1
    57   112   113    1
    58   112   115    1
    59   161   160    1
    60    68    69    1
    61   113   114    2
    62   166   163    1
    63   166   168    1
    64   163   162    1
    65   118   119    2
    66   160   159   ar
    67   160   158   ar
    68    63    62    1
    69    63    64    2
    70   159   157   ar
    71    62    65    1
    72    69    72    1
    73    69    70    1
    74   162   152   am
    75   158   156   ar
    76    65    67    1
    77    65    66    1
    78    72    73    1
    79   157   155   ar
    80    70    78   am
    81    70    71    2
    82    78    79    1
    83    80    79    1
    84    80    81    2
    85   156   155   ar
    86   152   153    2
    87   152   151    1
    88   155   154    1
    89    73    74   ar
    90    73    75   ar
    91    74    76   ar
    92    79    82    1
    93   124   125    1
    94    82    83    1
    95    87    88    1
    96   145   144    2
    97   151   154    1
    98   151   150    1
    99   128   125    1
   100   128   129    1
   101    76    77   ar
   102    83    84    1
   103    75    77   ar
   104   125   126    1
   105   129   131   ar
   106   129   130   ar
   107   144   150   am
   108   144   143    1
   109    89    88    1
   110    89    90    2
   111   127   126    2
   112    88    91    1
   113   131   133   ar
   114   130   132   ar
   115   126   135   am
   116    84    86   ar
   117    84    85   ar
   118   148   146    1
   119   133   134   ar
   120    91    92    1
   121   132   134   ar
   122   143   146    1
   123   143   142    1
   124   146   147    1
   125    31    30    1
   126   142   137   am
   127    37    34    1
   128    52    49    1
   129    92    93   ar
   130    92    94   ar
   131    93    95   ar
   132   135   136    1
   133   135   141    1
   134    94    96   ar
   135    99    98    1
   136    99   100    2
   137    95    96   ar
   138    98    97    1
   139    98   101    1
   140   137   136    1
   141   137   138    2
   142   136   139    1
   143   141   140    1
   144    30    29    1
   145    30    32    1
   146   147   149    1
   147   104   106   ar
   148   104   102   ar
   149    28    27    2
   150    49    48    1
   151    49    50    1
   152    29    26    1
   153    34    33    1
   154    34    35    1
   155    41    40    2
   156    27    33   am
   157    27    26    1
   158    48    40   am
   159    40    39    1
   160    38    35   am
   161    38    39    1
   162   106   105   ar
   163   101   102    1
   164    35    36    2
   165   102   103   ar
   166    50    51    2
   167   140   139    1
   168    26    25    1
   169    39    42    1
   170   105   103   ar
   171    25    19   am
   172    42    43    1
   173    44    43   ar
   174    44    46   ar
   175    43    45   ar
   176    19    20    2
   177    19    18    1
   178    46    47   ar
   179    16    15    2
   180    45    47   ar
   181    18    17    1
   182    18    21    1
   183    15    17   am
   184    15    14    1
   185    13    14    1
   186    21    22    1
   187    24    22    1
   188    10     8   ar
   189    10    11   ar
   190    22    23    1
   191     8     6   ar
   192    12    11    1
   193     4     3    2
   194    11     9   ar
   195     6     5    1
   196     6     7   ar
   197     5     2    1
   198     3     2    1
   199     9     7   ar
   200     2     1    1
