@<TRIPOS>MOLECULE
tmp/1zuaA01.pdb
 185 184 0 0 0
SMALL
GASTEIGER

@<TRIPOS>ATOM
      1  N        -24.5720   21.4670   -0.2230 N.3    22  TRP22      -0.1241
      2  CA       -24.9280   20.9820    1.1110 C.3    22  TRP22       0.1605
      3  C        -26.1040   20.0260    0.9720 C.2    22  TRP22       0.2264
      4  O        -27.1340   20.3760    0.3990 O.2    22  TRP22      -0.2867
      5  CB       -25.2900   22.1220    2.0360 C.3    22  TRP22       0.0550
      6  CG       -25.6910   21.7090    3.4280 C.ar   22  TRP22       0.0003
      7  CD1      -25.2060   20.6570    4.1530 C.ar   22  TRP22       0.0946
      8  CD2      -26.7440   22.2780    4.1900 C.ar   22  TRP22       0.0152
      9  NE1      -25.8820   20.5640    5.3310 N.ar   22  TRP22      -0.2442
     10  CE2      -26.8420   21.5460    5.3790 C.ar   22  TRP22       0.0810
     11  CE3      -27.5730   23.3910    4.0080 C.ar   22  TRP22       0.0012
     12  CZ2      -27.7890   21.8340    6.3460 C.ar   22  TRP22       0.0191
     13  CZ3      -28.5200   23.6720    5.0010 C.ar   22  TRP22       0.0001
     14  CH2      -28.6160   22.8780    6.1240 C.ar   22  TRP22       0.0015
     15  N        -17.3160   20.3760    5.5310 N.3    49  VAL49      -0.1231
     16  CA       -18.2820   19.7190    6.4190 C.3    49  VAL49       0.1692
     17  C        -19.3670   19.0260    5.6090 C.2    49  VAL49       0.2592
     18  O        -20.1060   18.1800    6.1470 O.2    49  VAL49      -0.2718
     19  CB       -18.8920   20.7490    7.4000 C.3    49  VAL49       0.0266
     20  CG1      -19.9160   21.6200    6.7230 C.3    49  VAL49       0.0020
     21  CG2      -19.4760   20.0670    8.5990 C.3    49  VAL49       0.0020
     22  N        -19.5280   19.3440    4.3200 N.am   50  TYR50      -0.1976
     23  CA       -20.5340   18.6790    3.4880 C.3    50  TYR50       0.1639
     24  C        -20.1210   17.2270    3.1840 C.2    50  TYR50       0.2290
     25  O        -20.9960   16.4580    2.8020 O.2    50  TYR50      -0.2864
     26  CB       -20.8100   19.4350    2.2220 C.3    50  TYR50       0.0560
     27  CG       -21.3270   20.8730    2.4340 C.ar   50  TYR50      -0.0198
     28  CD1      -21.7740   21.3200    3.6710 C.ar   50  TYR50      -0.0009
     29  CD2      -21.3380   21.7870    1.3720 C.ar   50  TYR50      -0.0009
     30  CE1      -22.1500   22.6310    3.8550 C.ar   50  TYR50       0.0417
     31  CE2      -21.7350   23.1010    1.5480 C.ar   50  TYR50       0.0417
     32  CZ       -22.1160   23.5260    2.8000 C.ar   50  TYR50       0.1957
     33  OH       -22.4420   24.8660    2.9850 O.3    50  TYR50      -0.2866
     34  N        -14.1750   24.9220    8.2970 N.3    81  TRP81      -0.1228
     35  CA       -15.1280   24.6240    9.3640 C.3    81  TRP81       0.1722
     36  C        -14.5220   25.0310   10.7310 C.2    81  TRP81       0.2437
     37  O        -13.3020   24.9080   10.9120 O.2    81  TRP81      -0.2733
     38  CB       -15.4060   23.0990    9.3170 C.3    81  TRP81       0.0563
     39  CG       -16.4030   22.5970   10.2880 C.ar   81  TRP81       0.0003
     40  CD1      -16.1380   21.8200   11.3800 C.ar   81  TRP81       0.0946
     41  CD2      -17.8200   22.8660   10.3140 C.ar   81  TRP81       0.0152
     42  NE1      -17.3010   21.6030   12.0630 N.ar   81  TRP81      -0.2442
     43  CE2      -18.3480   22.2190   11.4470 C.ar   81  TRP81       0.0810
     44  CE3      -18.6830   23.5970    9.5020 C.ar   81  TRP81       0.0012
     45  CZ2      -19.6850   22.2600   11.7490 C.ar   81  TRP81       0.0191
     46  CZ3      -20.0460   23.6530    9.8340 C.ar   81  TRP81       0.0001
     47  CH2      -20.5150   22.9990   10.9540 C.ar   81  TRP81       0.0015
     48  N        -15.3680   25.5020   11.6600 N.am   82  PRO82      -0.2729
     49  CA       -14.8370   26.0950   12.9160 C.3    82  PRO82       0.1401
     50  C        -14.1330   25.2140   13.9110 C.2    82  PRO82       0.2269
     51  O        -13.6610   25.7540   14.9140 O.2    82  PRO82      -0.2865
     52  CB       -16.0800   26.7790   13.5350 C.3    82  PRO82       0.0296
     53  CG       -17.2470   26.1130   12.8640 C.3    82  PRO82       0.0237
     54  CD       -16.7950   25.8490   11.5000 C.3    82  PRO82       0.0939
     55  N        -16.1930   29.4800    7.4690 N.3   112  HIS112     -0.1226
     56  CA       -17.5630   28.9580    7.2920 C.3   112  HIS112      0.1752
     57  C        -18.5440   29.5830    8.2860 C.2   112  HIS112      0.2596
     58  O        -19.6680   29.9540    7.9160 O.2   112  HIS112     -0.2718
     59  CB       -17.5430   27.4290    7.4110 C.3   112  HIS112      0.0759
     60  CG       -18.7260   26.7330    6.8240 C.ar  112  HIS112      0.0818
     61  ND1      -18.6450   25.4320    6.3590 N.ar  112  HIS112     -0.2268
     62  CD2      -20.0100   27.1620    6.6130 C.ar  112  HIS112      0.1154
     63  CE1      -19.8350   25.1100    5.8980 C.ar  112  HIS112      0.1986
     64  NE2      -20.6950   26.1170    6.0290 N.ar  112  HIS112     -0.2212
     65  N        -18.1180   29.6680    9.5510 N.am  113  TRP113     -0.1976
     66  CA       -18.8730   30.2470   10.6360 C.3   113  TRP113      0.1640
     67  C        -17.8670   30.9800   11.5390 C.2   113  TRP113      0.2290
     68  O        -16.7750   30.4630   11.7470 O.2   113  TRP113     -0.2864
     69  CB       -19.5860   29.1730   11.4740 C.3   113  TRP113      0.0576
     70  CG       -20.7410   28.5630   10.7700 C.ar  113  TRP113      0.0006
     71  CD1      -20.7240   27.4960    9.8910 C.ar  113  TRP113      0.0946
     72  CD2      -22.0700   29.0550   10.7700 C.ar  113  TRP113      0.0152
     73  NE1      -21.9850   27.2900    9.3870 N.ar  113  TRP113     -0.2442
     74  CE2      -22.8400   28.2340    9.8950 C.ar  113  TRP113      0.0810
     75  CE3      -22.7170   30.1050   11.4120 C.ar  113  TRP113      0.0012
     76  CZ2      -24.1780   28.4500    9.6640 C.ar  113  TRP113      0.0191
     77  CZ3      -24.0710   30.3100   11.1930 C.ar  113  TRP113      0.0001
     78  CH2      -24.7800   29.4830   10.3410 C.ar  113  TRP113      0.0015
     79  N        -18.0200   31.5570   14.8310 N.3   115  GLN115     -0.1245
     80  CA       -17.9440   31.0300   16.1740 C.3   115  GLN115      0.1566
     81  C        -17.1630   29.7280   16.1820 C.2   115  GLN115      0.2260
     82  O        -17.5280   28.7340   15.5540 O.2   115  GLN115     -0.2867
     83  CB       -19.3640   30.8670   16.7900 C.3   115  GLN115      0.0367
     84  CG       -20.3380   29.8880   16.1960 C.3   115  GLN115      0.0905
     85  CD       -21.1990   30.4780   15.0470 C.2   115  GLN115      0.2608
     86  OE1      -20.7220   31.1800   14.1610 O.2   115  GLN115     -0.2717
     87  NE2      -22.4900   30.1210   15.0180 N.am  115  GLN115     -0.0878
     88  N        -15.2890   26.2490   17.2950 N.3   117  PHE117     -0.1241
     89  CA       -15.6370   24.9880   17.9720 C.3   117  PHE117      0.1605
     90  C        -14.3460   24.3410   18.4740 C.2   117  PHE117      0.2264
     91  O        -13.3050   24.5020   17.9200 O.2   117  PHE117     -0.2867
     92  CB       -16.3160   24.0060   17.0380 C.3   117  PHE117      0.0534
     93  CG       -17.7380   24.3060   16.6890 C.ar  117  PHE117     -0.0203
     94  CD1      -18.4480   25.3910   17.1850 C.ar  117  PHE117     -0.0042
     95  CD2      -18.3910   23.4670   15.8030 C.ar  117  PHE117     -0.0042
     96  CE1      -19.7910   25.5870   16.8690 C.ar  117  PHE117     -0.0003
     97  CE2      -19.7300   23.6590   15.4750 C.ar  117  PHE117     -0.0003
     98  CZ       -20.3970   24.6970   15.9810 C.ar  117  PHE117     -0.0000
     99  N        -18.8350   18.2590   15.3900 N.3   124  PHE124     -0.1241
    100  CA       -19.8240   18.9730   16.1580 C.3   124  PHE124      0.1605
    101  C        -19.6040   18.6440   17.6170 C.2   124  PHE124      0.2264
    102  O        -20.3770   17.9250   18.2400 O.2   124  PHE124     -0.2867
    103  CB       -21.2660   18.6470   15.7140 C.3   124  PHE124      0.0534
    104  CG       -21.5820   19.0760   14.3140 C.ar  124  PHE124     -0.0203
    105  CD1      -22.2960   20.2670   14.0990 C.ar  124  PHE124     -0.0042
    106  CD2      -21.2510   18.2940   13.2070 C.ar  124  PHE124     -0.0042
    107  CE1      -22.6690   20.6410   12.8050 C.ar  124  PHE124     -0.0003
    108  CE2      -21.6130   18.6850   11.9530 C.ar  124  PHE124     -0.0003
    109  CZ       -22.2950   19.8660   11.7660 C.ar  124  PHE124     -0.0000
    110  N        -19.8490   18.5090   21.4790 N.3   126  LYS126     -0.1301
    111  CA       -21.0320   18.8570   22.4740 C.3   126  LYS126      0.1247
    112  C        -21.0380   19.2780   24.0150 C.3   126  LYS126      0.2009
    113  O        -20.3170   18.6300   24.8610 O.3   126  LYS126     -0.2188
    114  CB       -22.0350   17.7450   22.3600 C.3   126  LYS126      0.0218
    115  CG       -22.6350   17.7750   20.9950 C.3   126  LYS126      0.0031
    116  CD       -22.9640   19.1230   20.3870 C.3   126  LYS126      0.0205
    117  CE       -23.9520   18.7760   19.1400 C.3   126  LYS126      0.1093
    118  NZ       -24.0240   19.9390   18.1070 N.3   126  LYS126     -0.1314
    119  N        -23.0340   23.6230   21.3820 N.3   132  ALA132     -0.1245
    120  CA       -21.6770   23.5630   20.9430 C.3   132  ALA132      0.1562
    121  C        -20.5690   23.7780   22.1600 C.2   132  ALA132      0.2260
    122  O        -20.8260   24.5240   23.1410 O.2   132  ALA132     -0.2867
    123  CB       -21.4830   24.5060   19.7600 C.3   132  ALA132      0.0290
    124  N        -21.6010   33.9190    7.2130 N.3   162  ASN162     -0.1240
    125  CA       -22.3580   34.0590    8.4600 C.3   162  ASN162      0.1653
    126  C        -21.7220   35.1020    9.3770 C.2   162  ASN162      0.2266
    127  O        -21.8060   35.0020   10.5860 O.2   162  ASN162     -0.2867
    128  CB       -22.4890   32.7150    9.1770 C.3   162  ASN162      0.1155
    129  CG       -23.2200   31.7390    8.3210 C.2   162  ASN162      0.2627
    130  OD1      -24.4300   31.9450    8.0680 O.2   162  ASN162     -0.2716
    131  ND2      -22.5630   30.6770    7.8930 N.am  162  ASN162     -0.0877
    132  N        -27.1870   32.2400    0.4270 N.3   211  TYR211     -0.1241
    133  CA       -27.4040   30.8210    0.6270 C.3   211  TYR211      0.1605
    134  C        -28.8660   30.5440    1.0060 C.2   211  TYR211      0.2264
    135  O        -29.6230   31.4460    1.3820 O.2   211  TYR211     -0.2867
    136  CB       -26.3970   30.1850    1.5990 C.3   211  TYR211      0.0534
    137  CG       -26.4700   30.3860    3.0620 C.ar  211  TYR211     -0.0201
    138  CD1      -27.5410   29.8720    3.8140 C.ar  211  TYR211     -0.0009
    139  CD2      -25.4290   30.9570    3.7710 C.ar  211  TYR211     -0.0009
    140  CE1      -27.5150   29.9060    5.1760 C.ar  211  TYR211      0.0417
    141  CE2      -25.4240   30.9650    5.1570 C.ar  211  TYR211      0.0417
    142  CZ       -26.4580   30.4140    5.8650 C.ar  211  TYR211      0.1957
    143  OH       -26.4120   30.3600    7.2280 O.3   211  TYR211     -0.2866
    144  N        -34.2860   19.8850    9.8730 N.3   221  TRP221     -0.1241
    145  CA       -35.1860   20.3980   10.9100 C.3   221  TRP221      0.1605
    146  C        -36.4040   21.1540   10.3950 C.2   221  TRP221      0.2264
    147  O        -37.1520   21.7480   11.1800 O.2   221  TRP221     -0.2867
    148  CB       -34.3910   21.2870   11.8800 C.3   221  TRP221      0.0550
    149  CG       -33.4980   22.3160   11.1930 C.ar  221  TRP221      0.0003
    150  CD1      -33.8620   23.5800   10.8200 C.ar  221  TRP221      0.0946
    151  CD2      -32.1550   22.1580   10.7470 C.ar  221  TRP221      0.0152
    152  NE1      -32.8380   24.2270   10.2310 N.ar  221  TRP221     -0.2442
    153  CE2      -31.7690   23.3750   10.1560 C.ar  221  TRP221      0.0810
    154  CE3      -31.2160   21.1290   10.8190 C.ar  221  TRP221      0.0012
    155  CZ2      -30.4930   23.5680    9.6140 C.ar  221  TRP221      0.0191
    156  CZ3      -29.9660   21.3330   10.3030 C.ar  221  TRP221      0.0001
    157  CH2      -29.6070   22.5490    9.7170 C.ar  221  TRP221      0.0015
    158  N        -31.4440   28.7860    8.9180 N.3   300  CYS300     -0.1235
    159  CA       -30.2170   28.3750    9.5760 C.3   300  CYS300      0.1677
    160  C        -29.8540   29.3380   10.6950 C.2   300  CYS300      0.2270
    161  O        -28.9580   30.1590   10.5610 O.2   300  CYS300     -0.2867
    162  CB       -29.0860   28.2710    8.5530 C.3   300  CYS300      0.0956
    163  SG       -29.2350   26.9600    7.3320 S.3   300  CYS300     -0.0801
    164  N        -28.9540   28.1460   13.8130 N.3   302  VAL302     -0.1245
    165  CA       -27.9660   27.4290   14.5680 C.3   302  VAL302      0.1561
    166  C        -27.8880   27.8270   16.0750 C.2   302  VAL302      0.2260
    167  O        -26.8170   28.0710   16.6550 O.2   302  VAL302     -0.2867
    168  CB       -26.5730   27.4310   13.8760 C.3   302  VAL302      0.0252
    169  CG1      -26.6560   26.7270   12.5570 C.3   302  VAL302      0.0019
    170  CG2      -25.9540   28.8170   13.6870 C.3   302  VAL302      0.0019
    171  N        -28.0480   26.1630   18.7440 N.3   304  GLN304     -0.1231
    172  CA       -27.1130   25.4070   19.6210 C.3   304  GLN304      0.1698
    173  C        -25.7640   25.9820   19.8240 C.2   304  GLN304      0.2592
    174  O        -25.0520   25.6010   20.7220 O.2   304  GLN304     -0.2718
    175  CB       -26.8800   23.9780   19.1580 C.3   304  GLN304      0.0381
    176  CG       -26.9180   23.7860   17.7160 C.3   304  GLN304      0.0905
    177  CD       -28.3280   23.6610   17.1210 C.2   304  GLN304      0.2608
    178  OE1      -28.9330   24.6300   16.5460 O.2   304  GLN304     -0.2717
    179  NE2      -28.8700   22.4760   17.2960 N.am  304  GLN304     -0.0878
    180  N        -25.4070   26.9630   18.9610 N.am  305  SER305     -0.1952
    181  CA       -24.1520   27.6750   19.0870 C.3   305  SER305      0.1924
    182  C        -24.3160   29.0900   19.6000 C.2   305  SER305      0.2314
    183  O        -23.3550   29.8240   19.6640 O.2   305  SER305     -0.2863
    184  CB       -23.4360   27.7260   17.7370 C.3   305  SER305      0.2116
    185  OG       -24.0850   28.5290   16.7770 O.3   305  SER305     -0.2180
@<TRIPOS>BOND
     1     1     2    1
     2     4     3    2
     3   132   133    1
     4   133   134    1
     5   133   136    1
     6     3     2    1
     7   134   135    2
     8     2     5    1
     9    29    31   ar
    10    29    27   ar
    11    31    32   ar
    12   136   137    1
    13     5     6    1
    14    26    27    1
    15    26    23    1
    16    27    28   ar
    17    32    33    1
    18    32    30   ar
    19    25    24    2
    20   137   139   ar
    21   137   138   ar
    22    24    23    1
    23     6     7   ar
    24     6     8   ar
    25    23    22    1
    26    28    30   ar
    27   139   141   ar
    28   138   140   ar
    29    11     8   ar
    30    11    13   ar
    31     7     9   ar
    32     8    10   ar
    33    22    17   am
    34    13    14   ar
    35   141   142   ar
    36   140   142   ar
    37     9    10   ar
    38    10    12   ar
    39    15    16    1
    40    17    18    2
    41    17    16    1
    42   142   143    1
    43    63    64   ar
    44    63    61   ar
    45    64    62   ar
    46    14    12   ar
    47    61    60   ar
    48    16    19    1
    49    62    60   ar
    50    20    19    1
    51    60    59    1
    52   124   125    1
    53    56    59    1
    54    56    55    1
    55    56    57    1
    56   163   162    1
    57    19    21    1
    58   131   129   am
    59    58    57    2
    60   130   129    2
    61    57    65   am
    62    34    35    1
    63   129   128    1
    64   125   128    1
    65   125   126    1
    66   162   159    1
    67   158   159    1
    68    38    35    1
    69    38    39    1
    70    35    36    1
    71   126   127    2
    72    73    71   ar
    73    73    74   ar
    74    44    46   ar
    75    44    41   ar
    76    65    66    1
    77   159   160    1
    78   155   157   ar
    79   155   153   ar
    80    76    74   ar
    81    76    78   ar
    82   157   156   ar
    83    46    47   ar
    84   144   145    1
    85    71    70   ar
    86    74    72   ar
    87   153   152   ar
    88   153   151   ar
    89   152   150   ar
    90    39    41   ar
    91    39    40   ar
    92   156   154   ar
    93    41    43   ar
    94    78    77   ar
    95   146   145    1
    96   146   147    2
    97   161   160    2
    98    66    69    1
    99    66    67    1
   100    36    37    2
   101    36    48   am
   102   151   154   ar
   103   151   149   ar
   104    70    72   ar
   105    70    69    1
   106    72    75   ar
   107   150   149   ar
   108   145   148    1
   109    47    45   ar
   110   149   148    1
   111    77    75   ar
   112    40    42   ar
   113    43    45   ar
   114    43    42   ar
   115    54    48    1
   116    54    53    1
   117    67    68    2
   118    48    49    1
   119   109   108   ar
   120   109   107   ar
   121   108   106   ar
   122   169   168    1
   123   107   105   ar
   124    53    52    1
   125    49    52    1
   126    49    50    1
   127   106   104   ar
   128   170   168    1
   129   164   165    1
   130   168   165    1
   131    50    51    2
   132   105   104   ar
   133    86    85    2
   134   104   103    1
   135   165   166    1
   136    79    80    1
   137    87    85   am
   138    85    84    1
   139    99   100    1
   140    97    95   ar
   141    97    98   ar
   142    82    81    2
   143   103   100    1
   144    95    93   ar
   145    98    96   ar
   146   166   167    2
   147   100   101    1
   148    80    81    1
   149    80    83    1
   150    84    83    1
   151   178   177    2
   152    93    92    1
   153    93    94   ar
   154   185   184    1
   155    96    94   ar
   156    92    89    1
   157   177   179   am
   158   177   176    1
   159    88    89    1
   160   101   102    2
   161   176   175    1
   162   184   181    1
   163    91    90    2
   164    89    90    1
   165   118   117    1
   166   171   172    1
   167   180   181    1
   168   180   173   am
   169   181   182    1
   170   117   116    1
   171   175   172    1
   172   182   183    2
   173   172   173    1
   174   123   120    1
   175   173   174    2
   176   116   115    1
   177   120   119    1
   178   120   121    1
   179   115   114    1
   180   110   111    1
   181   121   122    2
   182   114   111    1
   183   111   112    1
   184   112   113    1
