@<TRIPOS>MOLECULE
tmp/1zubA00.pdb
 160 154 0 0 0
SMALL
GASTEIGER

@<TRIPOS>ATOM
      1  N        171.1950  -14.0920    0.2030 N.3    32  ALA32      -0.1231
      2  CA       172.0670  -14.5050    1.2940 C.3    32  ALA32       0.1694
      3  C        172.2400  -13.3890    2.3180 C.2    32  ALA32       0.2592
      4  O        171.9590  -13.5710    3.5020 O.2    32  ALA32      -0.2718
      5  CB       173.4150  -14.9520    0.7500 C.3    32  ALA32       0.0304
      6  N        172.7030  -12.2340    1.8550 N.am   33  LEU33      -0.1966
      7  CA       172.9110  -11.0860    2.7350 C.3    33  LEU33       0.1728
      8  C        172.0410   -9.9000    2.3030 C.2    33  LEU33       0.2616
      9  O        170.9060   -9.7670    2.7580 O.2    33  LEU33      -0.2715
     10  CB       174.3940  -10.6820    2.7870 C.3    33  LEU33       0.0311
     11  CG       175.4150  -11.7900    2.5000 C.3    33  LEU33       0.0022
     12  CD1      175.2170  -12.9760    3.4240 C.3    33  LEU33       0.0001
     13  CD2      175.3630  -12.2230    1.0420 C.3    33  LEU33       0.0001
     14  N        172.5620   -9.0430    1.4200 N.am   34  LEU34      -0.1963
     15  CA       171.7990   -7.8900    0.9440 C.3    34  LEU34       0.1728
     16  C        171.7600   -7.8450   -0.5850 C.2    34  LEU34       0.2617
     17  O        170.7060   -7.5970   -1.1700 O.2    34  LEU34      -0.2715
     18  CB       172.3500   -6.5650    1.5020 C.3    34  LEU34       0.0311
     19  CG       173.7230   -6.6270    2.1760 C.3    34  LEU34       0.0022
     20  CD1      174.2440   -5.2250    2.4500 C.3    34  LEU34       0.0001
     21  CD2      173.6600   -7.4340    3.4630 C.3    34  LEU34       0.0001
     22  N        172.8990   -8.0980   -1.2390 N.am   35  GLY35      -0.1940
     23  CA       172.9130   -8.0850   -2.6960 C.3    35  GLY35       0.2014
     24  C        174.2640   -7.7590   -3.3280 C.2    35  GLY35       0.2639
     25  O        174.3430   -7.5880   -4.5450 O.2    35  GLY35      -0.2714
     26  N        175.3270   -7.6710   -2.5310 N.am   36  LEU36      -0.1963
     27  CA       176.6490   -7.3650   -3.0780 C.3    36  LEU36       0.1728
     28  C        177.7710   -7.7720   -2.1220 C.2    36  LEU36       0.2616
     29  O        177.6270   -7.6970   -0.9060 O.2    36  LEU36      -0.2715
     30  CB       176.7560   -5.8700   -3.4230 C.3    36  LEU36       0.0311
     31  CG       176.7520   -4.8890   -2.2400 C.3    36  LEU36       0.0022
     32  CD1      175.5370   -5.1030   -1.3530 C.3    36  LEU36       0.0001
     33  CD2      178.0310   -5.0100   -1.4270 C.3    36  LEU36       0.0001
     34  N        178.9040   -8.1770   -2.6860 N.am   37  LYS37      -0.1963
     35  CA       180.0610   -8.5670   -1.8860 C.3    37  LYS37       0.1728
     36  C        181.0180   -7.3890   -1.7640 C.2    37  LYS37       0.2616
     37  O        181.3350   -6.7380   -2.7570 O.2    37  LYS37      -0.2715
     38  CB       180.7740   -9.7610   -2.5270 C.3    37  LYS37       0.0311
     39  CG       181.8380  -10.3850   -1.6370 C.3    37  LYS37       0.0038
     40  CD       181.5160  -11.8350   -1.3090 C.3    37  LYS37       0.0206
     41  CE       182.7730  -12.6880   -1.2660 C.3    37  LYS37       0.1093
     42  NZ       183.2490  -12.9060    0.1280 N.3    37  LYS37      -0.1314
     43  N        181.4630   -7.1040   -0.5470 N.am   38  VAL38      -0.1963
     44  CA       182.3680   -5.9840   -0.3220 C.3    38  VAL38       0.1727
     45  C        183.7150   -6.4420    0.2120 C.2    38  VAL38       0.2616
     46  O        183.8270   -7.4840    0.8500 O.2    38  VAL38      -0.2715
     47  CB       181.7640   -4.9590    0.6620 C.3    38  VAL38       0.0290
     48  CG1      182.8580   -4.1720    1.3790 C.3    38  VAL38       0.0023
     49  CG2      180.8240   -4.0190   -0.0710 C.3    38  VAL38       0.0023
     50  N        184.7300   -5.6330   -0.0510 N.am   39  VAL39      -0.1963
     51  CA       186.0750   -5.9210    0.4040 C.3    39  VAL39       0.1727
     52  C        186.5450   -4.8520    1.3890 C.2    39  VAL39       0.2616
     53  O        185.9790   -3.7630    1.4490 O.2    39  VAL39      -0.2715
     54  CB       187.0380   -6.0320   -0.7980 C.3    39  VAL39       0.0290
     55  CG1      188.3540   -5.3100   -0.5500 C.3    39  VAL39       0.0023
     56  CG2      187.2700   -7.4930   -1.1250 C.3    39  VAL39       0.0023
     57  N        187.5780   -5.1730    2.1610 N.am   40  GLY40      -0.1955
     58  CA       188.0960   -4.2270    3.1320 C.3    40  GLY40       0.1869
     59  C        189.6100   -4.2110    3.1780 C.2    40  GLY40       0.2309
     60  O        190.2580   -5.2120    2.8730 O.2    40  GLY40      -0.2863
     61  N        191.5630   -1.9660    1.4300 N.3    42  LYS42      -0.1245
     62  CA       192.0690   -1.6630    0.0970 C.3    42  LYS42       0.1561
     63  C        192.8500   -0.3540    0.0980 C.2    42  LYS42       0.2260
     64  O        192.3010    0.7080   -0.1970 O.2    42  LYS42      -0.2867
     65  CB       190.9140   -1.5820   -0.9030 C.3    42  LYS42       0.0271
     66  CG       190.4970   -2.9340   -1.4610 C.3    42  LYS42       0.0035
     67  CD       191.0410   -3.1510   -2.8630 C.3    42  LYS42       0.0206
     68  CE       190.9620   -4.6140   -3.2710 C.3    42  LYS42       0.1093
     69  NZ       191.3440   -4.8140   -4.6960 N.3    42  LYS42      -0.1314
     70  N        183.0560   -6.2320   -4.5390 N.3    54  THR54      -0.1203
     71  CA       183.6510   -7.2490   -5.3980 C.3    54  THR54       0.1994
     72  C        182.6660   -7.7210   -6.4640 C.2    54  THR54       0.2617
     73  O        183.0650   -8.0620   -7.5780 O.2    54  THR54      -0.2717
     74  CB       184.1250   -8.4400   -4.5630 C.3    54  THR54       0.1784
     75  OG1      183.3420   -8.5750   -3.3880 O.3    54  THR54      -0.2211
     76  CG2      185.5760   -8.3370   -4.1430 C.3    54  THR54       0.0376
     77  N        181.3810   -7.7460   -6.1210 N.am   55  LYS55      -0.1979
     78  CA       180.3580   -8.1870   -7.0640 C.3    55  LYS55       0.1596
     79  C        178.9540   -7.8310   -6.5820 C.2    55  LYS55       0.2287
     80  O        178.7310   -7.5930   -5.3950 O.2    55  LYS55      -0.2864
     81  CB       180.4630   -9.6970   -7.2900 C.3    55  LYS55       0.0298
     82  CG       180.1280  -10.5260   -6.0600 C.3    55  LYS55       0.0038
     83  CD       179.9000  -11.9860   -6.4190 C.3    55  LYS55       0.0206
     84  CE       178.6030  -12.1740   -7.1900 C.3    55  LYS55       0.1093
     85  NZ       177.4320  -11.6280   -6.4500 N.3    55  LYS55      -0.1314
     86  N        174.8020   -9.0940   -7.1070 N.3    57  LYS57      -0.1245
     87  CA       173.8470  -10.0520   -7.6490 C.3    57  LYS57       0.1561
     88  C        172.6940   -9.3240   -8.3350 C.2    57  LYS57       0.2260
     89  O        171.8350   -8.7400   -7.6750 O.2    57  LYS57      -0.2867
     90  CB       173.3130  -10.9610   -6.5380 C.3    57  LYS57       0.0271
     91  CG       173.4830  -12.4420   -6.8320 C.3    57  LYS57       0.0035
     92  CD       172.9290  -13.3010   -5.7060 C.3    57  LYS57       0.0206
     93  CE       173.9050  -13.3950   -4.5450 C.3    57  LYS57       0.1093
     94  NZ       174.9220  -14.4610   -4.7590 N.3    57  LYS57      -0.1314
     95  N        179.5450    2.2020    6.1240 N.3    77  TRP77      -0.1241
     96  CA       178.8250    0.9420    6.2680 C.3    77  TRP77       0.1605
     97  C        178.0320    0.9300    7.5700 C.2    77  TRP77       0.2264
     98  O        178.6090    0.9700    8.6570 O.2    77  TRP77      -0.2867
     99  CB       179.8000   -0.2340    6.2450 C.3    77  TRP77       0.0550
    100  CG       179.1260   -1.5590    6.0620 C.ar   77  TRP77       0.0003
    101  CD1      178.4840   -2.2920    7.0180 C.ar   77  TRP77       0.0946
    102  CD2      179.0300   -2.3080    4.8480 C.ar   77  TRP77       0.0152
    103  NE1      177.9980   -3.4560    6.4710 N.ar   77  TRP77      -0.2442
    104  CE2      178.3210   -3.4880    5.1400 C.ar   77  TRP77       0.0810
    105  CE3      179.4750   -2.0960    3.5410 C.ar   77  TRP77       0.0012
    106  CZ2      178.0490   -4.4520    4.1710 C.ar   77  TRP77       0.0191
    107  CZ3      179.2040   -3.0530    2.5830 C.ar   77  TRP77       0.0001
    108  CH2      178.4960   -4.2190    2.9030 C.ar   77  TRP77       0.0015
    109  N        191.0240   -4.4320    6.4040 N.3    87  ASN87      -0.1240
    110  CA       190.1610   -5.5790    6.1310 C.3    87  ASN87       0.1653
    111  C        189.5300   -6.1240    7.4110 C.2    87  ASN87       0.2266
    112  O        188.3260   -6.3770    7.4590 O.2    87  ASN87      -0.2867
    113  CB       190.9580   -6.6850    5.4370 C.3    87  ASN87       0.1155
    114  CG       192.1590   -7.1290    6.2480 C.2    87  ASN87       0.2627
    115  OD1      193.2400   -6.5490    6.1460 O.2    87  ASN87      -0.2716
    116  ND2      191.9760   -8.1640    7.0600 N.am   87  ASN87      -0.0877
    117  N        186.7670   -3.5070    8.8260 N.3    90  VAL90      -0.1231
    118  CA       185.5070   -3.6170    8.1030 C.3    90  VAL90       0.1692
    119  C        184.7800   -4.9040    8.4830 C.2    90  VAL90       0.2592
    120  O        183.5620   -4.9140    8.6610 O.2    90  VAL90      -0.2718
    121  CB       185.7360   -3.5890    6.5780 C.3    90  VAL90       0.0266
    122  CG1      184.4420   -3.8680    5.8280 C.3    90  VAL90       0.0020
    123  CG2      186.3300   -2.2540    6.1520 C.3    90  VAL90       0.0020
    124  N        185.5430   -5.9860    8.6110 N.am   91  TYR91      -0.1976
    125  CA       184.9810   -7.2820    8.9770 C.3    91  TYR91       0.1639
    126  C        184.0630   -7.1520   10.1860 C.2    91  TYR91       0.2290
    127  O        182.9190   -7.6010   10.1630 O.2    91  TYR91      -0.2864
    128  CB       186.1010   -8.2810    9.2840 C.3    91  TYR91       0.0560
    129  CG       186.5550   -9.0880    8.0870 C.ar   91  TYR91      -0.0198
    130  CD1      186.6070   -8.5230    6.8190 C.ar   91  TYR91      -0.0009
    131  CD2      186.9360  -10.4170    8.2280 C.ar   91  TYR91      -0.0009
    132  CE1      187.0240   -9.2590    5.7250 C.ar   91  TYR91       0.0417
    133  CE2      187.3560  -11.1580    7.1400 C.ar   91  TYR91       0.0417
    134  CZ       187.3990  -10.5750    5.8910 C.ar   91  TYR91       0.1957
    135  OH       187.8160  -11.3110    4.8060 O.3    91  TYR91      -0.2866
    136  N        180.8830   -4.5970    9.2610 N.3    94  ILE94      -0.1231
    137  CA       179.8550   -5.2680    8.4760 C.3    94  ILE94       0.1692
    138  C        179.2270   -6.4260    9.2480 C.2    94  ILE94       0.2591
    139  O        178.0120   -6.4610    9.4370 O.2    94  ILE94      -0.2718
    140  CB       180.4140   -5.7790    7.1350 C.3    94  ILE94       0.0266
    141  CG1      181.0430   -4.6090    6.3620 C.3    94  ILE94       0.0019
    142  CG2      179.3090   -6.4500    6.3270 C.3    94  ILE94       0.0020
    143  CD1      181.2190   -4.8550    4.8760 C.3    94  ILE94       0.0001
    144  N        180.0530   -7.3720    9.6930 N.am   95  LEU95      -0.1980
    145  CA       179.5560   -8.5240   10.4460 C.3    95  LEU95       0.1596
    146  C        178.5700   -8.0890   11.5240 C.2    95  LEU95       0.2287
    147  O        177.4700   -8.6290   11.6340 O.2    95  LEU95      -0.2864
    148  CB       180.7170   -9.2870   11.0860 C.3    95  LEU95       0.0297
    149  CG       181.4000  -10.3200   10.1840 C.3    95  LEU95       0.0022
    150  CD1      181.4070   -9.8590    8.7330 C.3    95  LEU95       0.0001
    151  CD2      182.8170  -10.5860   10.6640 C.3    95  LEU95       0.0001
    152  N        175.5920   -7.2510    9.9150 N.3    98  LYS98      -0.1245
    153  CA       174.9820   -8.3520    9.1780 C.3    98  LYS98       0.1561
    154  C        173.7820   -8.9210    9.9340 C.2    98  LYS98       0.2260
    155  O        172.9280   -9.5860    9.3490 O.2    98  LYS98      -0.2867
    156  CB       176.0100   -9.4560    8.9210 C.3    98  LYS98       0.0271
    157  CG       176.7090   -9.3330    7.5770 C.3    98  LYS98       0.0035
    158  CD       176.9810  -10.6970    6.9630 C.3    98  LYS98       0.0206
    159  CE       178.3870  -11.1800    7.2790 C.3    98  LYS98       0.1093
    160  NZ       179.3710  -10.7320    6.2550 N.3    98  LYS98      -0.1314
@<TRIPOS>BOND
     1    88    89    2
     2    88    87    1
     3    87    86    1
     4    87    90    1
     5    73    72    2
     6    81    78    1
     7    81    82    1
     8    84    85    1
     9    84    83    1
    10    78    79    1
    11    78    77    1
    12    91    90    1
    13    91    92    1
    14    79    80    2
    15    72    77   am
    16    72    71    1
    17    83    82    1
    18    92    93    1
    19    71    74    1
    20    71    70    1
    21    94    93    1
    22    69    68    1
    23    74    76    1
    24    74    75    1
    25    25    24    2
    26    30    27    1
    27    30    31    1
    28    24    23    1
    29    24    26   am
    30    68    67    1
    31    27    26    1
    32    27    28    1
    33    67    66    1
    34    37    36    2
    35    23    22    1
    36    34    28   am
    37    34    35    1
    38    38    35    1
    39    38    39    1
    40    31    33    1
    41    31    32    1
    42    28    29    2
    43    35    36    1
    44    36    43   am
    45    39    40    1
    46    66    65    1
    47    40    41    1
    48    41    42    1
    49    22    16   am
    50    17    16    2
    51    56    54    1
    52    65    62    1
    53    54    55    1
    54    54    51    1
    55    16    15    1
    56    43    44    1
    57    44    45    1
    58    44    47    1
    59    64    63    2
    60    49    47    1
    61    50    45   am
    62    50    51    1
    63    62    63    1
    64    62    61    1
    65     1     2    1
    66    45    46    2
    67    51    52    1
    68    47    48    1
    69     5     2    1
    70    15    14    1
    71    15    18    1
    72    13    11    1
    73     2     3    1
    74    52    53    2
    75    52    57   am
    76    14     8   am
    77    18    19    1
    78     6     3   am
    79     6     7    1
    80    57    58    1
    81    19    20    1
    82    19    21    1
    83     8     7    1
    84     8     9    2
    85     3     4    2
    86    11    10    1
    87    11    12    1
    88   107   108   ar
    89   107   105   ar
    90     7    10    1
    91    60    59    2
    92   108   106   ar
    93    58    59    1
    94   105   102   ar
    95   106   104   ar
    96   135   134    1
    97   102   104   ar
    98   102   100   ar
    99   143   141    1
   100   104   103   ar
   101   113   110    1
   102   113   114    1
   103   132   134   ar
   104   132   130   ar
   105   122   121    1
   106   134   133   ar
   107   100    99    1
   108   100   101   ar
   109    95    96    1
   110   110   109    1
   111   110   111    1
   112   115   114    2
   113   123   121    1
   114    99    96    1
   115   114   116   am
   116   160   159    1
   117    96    97    1
   118   142   140    1
   119   141   140    1
   120   103   101   ar
   121   121   118    1
   122   130   129   ar
   123   158   159    1
   124   158   157    1
   125   140   137    1
   126   133   131   ar
   127   111   112    2
   128    97    98    2
   129   157   156    1
   130   129   131   ar
   131   129   128    1
   132   118   119    1
   133   118   117    1
   134   137   138    1
   135   137   136    1
   136   119   124   am
   137   119   120    2
   138   124   125    1
   139   150   149    1
   140   156   153    1
   141   125   128    1
   142   125   126    1
   143   153   152    1
   144   153   154    1
   145   138   139    2
   146   138   144   am
   147   155   154    2
   148   144   145    1
   149   127   126    2
   150   149   151    1
   151   149   148    1
   152   145   148    1
   153   145   146    1
   154   146   147    2
