@<TRIPOS>MOLECULE
tmp/1zucB00.pdb
 191 180 0 0 0
SMALL
GASTEIGER

@<TRIPOS>ATOM
      1  N         34.7560   -7.9990   14.6900 N.3    34  LEU34      -0.1245
      2  CA        33.6930   -7.0760   14.3180 C.3    34  LEU34       0.1561
      3  C         34.2010   -5.9650   13.3690 C.2    34  LEU34       0.2260
      4  O         33.5490   -5.6510   12.3640 O.2    34  LEU34      -0.2867
      5  CB        33.0130   -6.5250   15.5510 C.3    34  LEU34       0.0270
      6  CG        32.2250   -7.6050   16.3280 C.3    34  LEU34       0.0019
      7  CD1       31.8440   -7.1010   17.7040 C.3    34  LEU34       0.0001
      8  CD2       30.9850   -8.0290   15.5370 C.3    34  LEU34       0.0001
      9  N         34.4790   -7.4780    9.9040 N.3    37  LEU37      -0.1231
     10  CA        33.1510   -7.6230    9.2920 C.3    37  LEU37       0.1693
     11  C         32.6070   -6.2630    8.8250 C.2    37  LEU37       0.2592
     12  O         31.8720   -6.1680    7.8170 O.2    37  LEU37      -0.2718
     13  CB        32.1640   -8.2330   10.2700 C.3    37  LEU37       0.0284
     14  CG        32.2830   -9.7440   10.5890 C.3    37  LEU37       0.0019
     15  CD1       31.4390  -10.0160   11.8110 C.3    37  LEU37       0.0001
     16  CD2       31.7810  -10.5530    9.3770 C.3    37  LEU37       0.0001
     17  N         32.9530   -5.2110    9.5690 N.am   38  ASN38      -0.1974
     18  CA        32.5270   -3.8640    9.1610 C.3    38  ASN38       0.1688
     19  C         33.3000   -3.4010    7.9150 C.2    38  ASN38       0.2292
     20  O         32.7340   -2.7250    7.0610 O.2    38  ASN38      -0.2864
     21  CB        32.6980   -2.8820   10.3170 C.3    38  ASN38       0.1181
     22  CG        31.6520   -3.0840   11.3940 C.2    38  ASN38       0.2629
     23  OD1       30.5950   -3.6510   11.1410 O.2    38  ASN38      -0.2716
     24  ND2       31.9370   -2.6090   12.6000 N.am   38  ASN38      -0.0877
     25  N         34.6160   -5.5320    5.6370 N.3    40  LEU40      -0.1231
     26  CA        33.9640   -6.3190    4.6090 C.3    40  LEU40       0.1693
     27  C         32.6240   -5.6870    4.2210 C.2    40  LEU40       0.2592
     28  O         32.3080   -5.5920    3.0360 O.2    40  LEU40      -0.2718
     29  CB        33.7940   -7.7740    5.1070 C.3    40  LEU40       0.0284
     30  CG        33.2050   -8.7440    4.0950 C.3    40  LEU40       0.0019
     31  CD1       34.1510   -8.8680    2.8900 C.3    40  LEU40       0.0001
     32  CD2       33.0010  -10.0800    4.8350 C.3    40  LEU40       0.0001
     33  N         31.8440   -5.2410    5.2100 N.am   41  GLY41      -0.1957
     34  CA        30.5780   -4.5590    4.9640 C.3    41  GLY41       0.1869
     35  C         30.7580   -3.2660    4.1520 C.2    41  GLY41       0.2309
     36  O         29.9120   -2.9420    3.2750 O.2    41  GLY41      -0.2863
     37  N         31.4600   -4.4660    0.5370 N.3    44  GLN44      -0.1245
     38  CA        30.2170   -4.9850    0.0130 C.3    44  GLN44       0.1566
     39  C         29.1690   -3.9200   -0.3090 C.2    44  GLN44       0.2260
     40  O         28.4260   -4.0440   -1.2590 O.2    44  GLN44      -0.2867
     41  CB        29.6600   -6.0700    0.9210 C.3    44  GLN44       0.0367
     42  CG        30.5290   -7.3170    0.9840 C.3    44  GLN44       0.0905
     43  CD        29.8370   -8.4630    1.6570 C.2    44  GLN44       0.2608
     44  OE1       28.6950   -8.3430    2.0400 O.2    44  GLN44      -0.2717
     45  NE2       30.5200   -9.5760    1.7990 N.am   44  GLN44      -0.0878
     46  N         20.5260   -3.2030    2.6810 N.3    74  TRP74      -0.1227
     47  CA        21.9860   -3.4730    2.7900 C.3    74  TRP74       0.1737
     48  C         22.3020   -4.7600    3.6340 C.2    74  TRP74       0.2595
     49  O         22.9330   -5.6940    3.1640 O.2    74  TRP74      -0.2718
     50  CB        22.6340   -2.1920    3.3570 C.3    74  TRP74       0.0564
     51  CG        23.8270   -2.4000    4.1460 C.ar   74  TRP74       0.0003
     52  CD1       25.0510   -2.7770    3.6750 C.ar   74  TRP74       0.0946
     53  CD2       23.9630   -2.2510    5.5570 C.ar   74  TRP74       0.0152
     54  NE1       25.9510   -2.8870    4.7240 N.ar   74  TRP74      -0.2442
     55  CE2       25.2980   -2.5890    5.8880 C.ar   74  TRP74       0.0810
     56  CE3       23.1040   -1.8300    6.5740 C.ar   74  TRP74       0.0012
     57  CZ2       25.7770   -2.5360    7.1890 C.ar   74  TRP74       0.0191
     58  CZ3       23.5750   -1.8110    7.8570 C.ar   74  TRP74       0.0001
     59  CH2       24.8910   -2.1570    8.1590 C.ar   74  TRP74       0.0015
     60  N         21.8260   -4.7940    4.8700 N.am   75  MET75      -0.1979
     61  CA        22.0430   -5.9490    5.7840 C.3    75  MET75       0.1605
     62  C         21.4660   -7.2370    5.2050 C.2    75  MET75       0.2287
     63  O         22.1260   -8.2710    5.2420 O.2    75  MET75      -0.2864
     64  CB        21.4590   -5.6820    7.1880 C.3    75  MET75       0.0413
     65  CG        21.8660   -6.7630    8.2620 C.3    75  MET75       0.0598
     66  SD        23.6580   -6.8380    8.5930 S.3    75  MET75      -0.1393
     67  CE        23.9700   -5.4980    9.7390 C.3    75  MET75       0.0692
     68  N         23.5730   -8.5260    2.3790 N.3    78  MET78      -0.1230
     69  CA        24.8190   -9.0600    2.8730 C.3    78  MET78       0.1702
     70  C         24.6730  -10.4390    3.4950 C.2    78  MET78       0.2592
     71  O         25.5070  -11.3210    3.2450 O.2    78  MET78      -0.2718
     72  CB        25.4810   -8.1150    3.8630 C.3    78  MET78       0.0401
     73  CG        26.1100   -6.9130    3.1360 C.3    78  MET78       0.0596
     74  SD        27.0200   -6.0270    4.3770 S.3    78  MET78      -0.1393
     75  CE        27.2340   -4.6350    3.2780 C.3    78  MET78       0.0692
     76  N         23.6560  -10.6010    4.3360 N.am   79  VAL79      -0.1980
     77  CA        23.4120  -11.8950    4.9650 C.3    79  VAL79       0.1595
     78  C         22.9150  -12.9780    3.9500 C.2    79  VAL79       0.2287
     79  O         23.2510  -14.1500    4.0720 O.2    79  VAL79      -0.2864
     80  CB        22.5050  -11.7430    6.2280 C.3    79  VAL79       0.0276
     81  CG1       21.0250  -11.5570    5.8610 C.3    79  VAL79       0.0022
     82  CG2       22.7010  -12.9040    7.1870 C.3    79  VAL79       0.0022
     83  N         26.0200  -13.9700    2.0880 N.3    82  LEU82      -0.1245
     84  CA        26.7360  -14.8460    3.0150 C.3    82  LEU82       0.1561
     85  C         26.1560  -16.2900    3.0080 C.2    82  LEU82       0.2260
     86  O         26.9020  -17.2890    2.9520 O.2    82  LEU82      -0.2867
     87  CB        26.6920  -14.2390    4.4220 C.3    82  LEU82       0.0270
     88  CG        26.9490  -15.2190    5.5750 C.3    82  LEU82       0.0019
     89  CD1       28.4090  -15.6390    5.5390 C.3    82  LEU82       0.0001
     90  CD2       26.5830  -14.5570    6.9660 C.3    82  LEU82       0.0001
     91  N         27.3600  -17.9920   -0.3880 N.3    85  ARG85      -0.1245
     92  CA        28.7710  -18.4170   -0.2960 C.3    85  ARG85       0.1563
     93  C         29.0210  -19.5790    0.6910 C.2    85  ARG85       0.2260
     94  O         29.8420  -20.4580    0.4140 O.2    85  ARG85      -0.2867
     95  CB        29.6590  -17.2440    0.0790 C.3    85  ARG85       0.0307
     96  CG        29.6850  -16.1520   -1.0420 C.3    85  ARG85       0.0489
     97  CD        30.7560  -15.1180   -0.6850 C.3    85  ARG85       0.2205
     98  NE        30.4520  -14.4520    0.5790 N.pl3  85  ARG85      -0.0865
     99  CZ        29.6250  -13.4150    0.7110 C.cat  85  ARG85       0.5346
    100  NH1       29.0150  -12.8880   -0.3560 N.pl3  85  ARG85       0.1354
    101  NH2       29.4560  -12.8420    1.8990 N.pl3  85  ARG85       0.1354
    102  N         32.1450  -15.5720    5.1300 N.3    97  PHE97      -0.1241
    103  CA        31.9960  -14.1140    4.9730 C.3    97  PHE97       0.1605
    104  C         32.8240  -13.6920    3.7650 C.2    97  PHE97       0.2264
    105  O         32.3430  -12.9800    2.8640 O.2    97  PHE97      -0.2867
    106  CB        32.4020  -13.3450    6.2590 C.3    97  PHE97       0.0534
    107  CG        31.4280  -13.5400    7.4230 C.ar   97  PHE97      -0.0203
    108  CD1       31.6480  -14.5310    8.3940 C.ar   97  PHE97      -0.0042
    109  CD2       30.2500  -12.7760    7.5060 C.ar   97  PHE97      -0.0042
    110  CE1       30.7130  -14.7460    9.4500 C.ar   97  PHE97      -0.0003
    111  CE2       29.3270  -12.9720    8.5740 C.ar   97  PHE97      -0.0003
    112  CZ        29.5700  -13.9530    9.5420 C.ar   97  PHE97      -0.0000
    113  N         27.5510  -12.9660   20.0950 N.3   113  PHE113     -0.1241
    114  CA        28.0180  -13.1010   18.7210 C.3   113  PHE113      0.1605
    115  C         27.6880  -14.4880   18.1520 C.2   113  PHE113      0.2264
    116  O         27.2090  -14.5960   17.0260 O.2   113  PHE113     -0.2867
    117  CB        29.5120  -12.7810   18.6250 C.3   113  PHE113      0.0534
    118  CG        30.0460  -12.8080   17.2140 C.ar  113  PHE113     -0.0203
    119  CD1       29.5820  -11.8930   16.2500 C.ar  113  PHE113     -0.0042
    120  CD2       31.0070  -13.7570   16.8370 C.ar  113  PHE113     -0.0042
    121  CE1       30.0730  -11.9150   14.9260 C.ar  113  PHE113     -0.0003
    122  CE2       31.5110  -13.7910   15.5240 C.ar  113  PHE113     -0.0003
    123  CZ        31.0430  -12.8520   14.5620 C.ar  113  PHE113     -0.0000
    124  N         24.0720  -14.6610   17.2840 N.3   116  LEU116     -0.1245
    125  CA        23.8630  -13.8780   16.0740 C.3   116  LEU116      0.1561
    126  C         24.2190  -14.7220   14.8370 C.2   116  LEU116      0.2260
    127  O         23.4270  -14.8260   13.8960 O.2   116  LEU116     -0.2867
    128  CB        24.6900  -12.6040   16.1370 C.3   116  LEU116      0.0270
    129  CG        24.4050  -11.6210   14.9840 C.3   116  LEU116      0.0019
    130  CD1       23.0620  -10.9380   15.1210 C.3   116  LEU116      0.0001
    131  CD2       25.5220  -10.6450   14.8990 C.3   116  LEU116      0.0001
    132  N         22.1710  -16.0870   11.5610 N.3   120  MET120     -0.1245
    133  CA        22.5590  -15.9410   10.1480 C.3   120  MET120      0.1570
    134  C         22.6530  -17.3110    9.4620 C.2   120  MET120      0.2261
    135  O         22.2960  -17.4540    8.2990 O.2   120  MET120     -0.2867
    136  CB        23.9030  -15.2340   10.0440 C.3   120  MET120      0.0387
    137  CG        23.8620  -13.7870   10.5250 C.3   120  MET120      0.0595
    138  SD        25.3780  -12.9190   10.1810 S.3   120  MET120     -0.1393
    139  CE        26.4200  -13.3170   11.5350 C.3   120  MET120      0.0692
    140  N         19.9490   -8.7870   13.3610 N.3   206  LEU206     -0.1245
    141  CA        21.2270   -8.2530   12.8700 C.3   206  LEU206      0.1561
    142  C         21.2470   -6.7170   12.9700 C.2   206  LEU206      0.2260
    143  O         22.2510   -6.1510   13.3650 O.2   206  LEU206     -0.2867
    144  CB        21.4810   -8.6790   11.4150 C.3   206  LEU206      0.0270
    145  CG        21.5090  -10.1800   11.0310 C.3   206  LEU206      0.0019
    146  CD1       22.2990  -10.3620    9.7320 C.3   206  LEU206      0.0001
    147  CD2       22.0280  -11.0640   12.0710 C.3   206  LEU206      0.0001
    148  N         21.6730   -5.7570   16.7470 N.3   209  TYR209     -0.1227
    149  CA        23.0600   -6.0250   17.1610 C.3   209  TYR209      0.1736
    150  C         23.9850   -4.9400   16.5690 C.2   209  TYR209      0.2595
    151  O         24.8210   -4.3470   17.2650 O.2   209  TYR209     -0.2718
    152  CB        23.5000   -7.4260   16.6930 C.3   209  TYR209      0.0548
    153  CG        24.8540   -7.8330   17.2510 C.ar  209  TYR209     -0.0200
    154  CD1       26.0230   -7.3690   16.6720 C.ar  209  TYR209     -0.0009
    155  CD2       24.9500   -8.6620   18.3660 C.ar  209  TYR209     -0.0009
    156  CE1       27.2490   -7.6940   17.1770 C.ar  209  TYR209      0.0417
    157  CE2       26.2010   -9.0170   18.8840 C.ar  209  TYR209      0.0417
    158  CZ        27.3410   -8.5350   18.2650 C.ar  209  TYR209      0.1957
    159  OH        28.6020   -8.8420   18.7340 O.3   209  TYR209     -0.2866
    160  N         23.8420   -4.6960   15.2670 N.am  210  CYS210     -0.1970
    161  CA        24.6680   -3.6910   14.5790 C.3   210  CYS210      0.1712
    162  C         24.4860   -2.2680   15.1950 C.2   210  CYS210      0.2296
    163  O         25.4580   -1.5940   15.4930 O.2   210  CYS210     -0.2864
    164  CB        24.3380   -3.6670   13.0710 C.3   210  CYS210      0.0983
    165  SG        25.3790   -2.4590   12.1350 S.3   210  CYS210     -0.0798
    166  N         26.1480   -2.0320   18.6890 N.3   213  THR213     -0.1218
    167  CA        27.5770   -1.9950   18.5350 C.3   213  THR213      0.1862
    168  C         28.0700   -0.6280   18.0100 C.2   213  THR213      0.2287
    169  O         29.1020   -0.1310   18.4580 O.2   213  THR213     -0.2866
    170  CB        28.0550   -3.1620   17.5950 C.3   213  THR213      0.1770
    171  OG1       27.4700   -4.3970   18.0530 O.3   213  THR213     -0.2211
    172  CG2       29.5820   -3.2610   17.5950 C.3   213  THR213      0.0375
    173  N         33.9590    1.3640   12.4870 N.3   224  PHE224     -0.1241
    174  CA        32.9230    1.3870   11.4650 C.3   224  PHE224      0.1605
    175  C         33.3720    2.3560   10.3650 C.2   224  PHE224      0.2264
    176  O         33.5190    3.5630   10.6280 O.2   224  PHE224     -0.2867
    177  CB        31.6000    1.8920   12.0480 C.3   224  PHE224      0.0534
    178  CG        30.8630    0.8800   12.8740 C.ar  224  PHE224     -0.0203
    179  CD1       31.2470    0.6300   14.1930 C.ar  224  PHE224     -0.0042
    180  CD2       29.7860    0.1870   12.3400 C.ar  224  PHE224     -0.0042
    181  CE1       30.5740   -0.3160   14.9630 C.ar  224  PHE224     -0.0003
    182  CE2       29.1190   -0.7610   13.0960 C.ar  224  PHE224     -0.0003
    183  CZ        29.5240   -1.0060   14.4390 C.ar  224  PHE224     -0.0000
    184  N         29.2770    2.6540    5.5320 N.3   228  MET228     -0.1245
    185  CA        28.5260    1.8240    6.4950 C.3   228  MET228      0.1570
    186  C         27.9320    2.6970    7.5830 C.2   228  MET228      0.2261
    187  O         26.7450    2.6020    7.8890 O.2   228  MET228     -0.2867
    188  CB        29.5200    0.8580    7.1880 C.3   228  MET228      0.0387
    189  CG        29.9660   -0.2140    6.3160 C.3   228  MET228      0.0595
    190  SD        28.7570   -1.5800    6.4820 S.3   228  MET228     -0.1393
    191  CE        29.1030   -2.0000    8.2460 C.3   228  MET228      0.0692
@<TRIPOS>BOND
     1    40    39    2
     2    96    97    1
     3    96    95    1
     4    97    98    1
     5    91    92    1
     6   100    99    1
     7    39    38    1
     8    92    95    1
     9    92    93    1
    10    38    37    1
    11    38    41    1
    12    94    93    2
    13    98    99    2
    14    99   101    1
    15    41    42    1
    16    42    43    1
    17    43    45   am
    18    43    44    2
    19    83    84    1
    20    68    69    1
    21    46    47    1
    22    47    50    1
    23    47    48    1
    24   105   104    2
    25    69    70    1
    26    69    72    1
    27    31    30    1
    28    86    85    2
    29    85    84    1
    30    84    87    1
    31    28    27    2
    32    73    72    1
    33    73    74    1
    34    49    48    2
    35    71    70    2
    36    36    35    2
    37    75    74    1
    38    50    51    1
    39    70    76   am
    40    48    60   am
    41    52    51   ar
    42    52    54   ar
    43   104   103    1
    44    78    79    2
    45    78    77    1
    46    30    32    1
    47    30    29    1
    48    51    53   ar
    49    35    34    1
    50    27    26    1
    51    27    33   am
    52    76    77    1
    53    87    88    1
    54    26    29    1
    55    26    25    1
    56    54    55   ar
    57    60    61    1
    58    34    33    1
    59    77    80    1
    60   103   102    1
    61   103   106    1
    62    62    63    2
    63    62    61    1
    64   184   185    1
    65    89    88    1
    66    53    55   ar
    67    53    56   ar
    68    88    90    1
    69    61    64    1
    70    81    80    1
    71    55    57   ar
    72    80    82    1
    73   106   107    1
    74   189   190    1
    75   189   188    1
    76   190   191    1
    77   185   188    1
    78   185   186    1
    79    56    58   ar
    80    20    19    2
    81    64    65    1
    82    57    59   ar
    83   107   109   ar
    84   107   108   ar
    85   109   111   ar
    86   186   187    2
    87    12    11    2
    88    58    59   ar
    89    19    18    1
    90    65    66    1
    91   135   134    2
    92   108   110   ar
    93   111   112   ar
    94    66    67    1
    95    11    10    1
    96    11    17   am
    97    18    17    1
    98    18    21    1
    99    10     9    1
   100    10    13    1
   101    16    14    1
   102   110   112   ar
   103   134   133    1
   104   146   145    1
   105   136   133    1
   106   136   137    1
   107   133   132    1
   108   138   137    1
   109   138   139    1
   110    13    14    1
   111    21    22    1
   112   175   176    2
   113   175   174    1
   114    14    15    1
   115   145   144    1
   116   145   147    1
   117    23    22    2
   118    22    24   am
   119   144   141    1
   120   174   177    1
   121   174   173    1
   122   177   178    1
   123   165   164    1
   124   180   178   ar
   125   180   182   ar
   126     4     3    2
   127   141   142    1
   128   141   140    1
   129   178   179   ar
   130   142   143    2
   131   164   161    1
   132   182   183   ar
   133     3     2    1
   134   127   126    2
   135   179   181   ar
   136     2     1    1
   137     2     5    1
   138   183   181   ar
   139   123   121   ar
   140   123   122   ar
   141   161   162    1
   142   161   160    1
   143   126   125    1
   144   131   129    1
   145   121   119   ar
   146   129   130    1
   147   129   128    1
   148   162   163    2
   149   160   150   am
   150   122   120   ar
   151     8     6    1
   152     5     6    1
   153   125   128    1
   154   125   124    1
   155   119   118   ar
   156     6     7    1
   157   150   149    1
   158   150   151    2
   159   154   156   ar
   160   154   153   ar
   161   152   149    1
   162   152   153    1
   163   148   149    1
   164   120   118   ar
   165   116   115    2
   166   156   158   ar
   167   118   117    1
   168   153   155   ar
   169   172   170    1
   170   170   171    1
   171   170   167    1
   172   168   169    2
   173   168   167    1
   174   115   114    1
   175   158   159    1
   176   158   157   ar
   177   155   157   ar
   178   167   166    1
   179   117   114    1
   180   114   113    1
