@<TRIPOS>MOLECULE
tmp/1zuiA00.pdb
 153 144 0 0 0
SMALL
GASTEIGER

@<TRIPOS>ATOM
      1  N         41.5770   15.0440    2.4270 N.3     8  PHE8       -0.1227
      2  CA        42.3270   14.0020    2.9930 C.3     8  PHE8        0.1736
      3  C         41.7150   13.5730    4.3630 C.2     8  PHE8        0.2595
      4  O         40.9380   14.3390    5.0140 O.2     8  PHE8       -0.2718
      5  CB        43.7100   14.5950    3.1450 C.3     8  PHE8        0.0547
      6  CG        44.8390   13.5730    3.2960 C.ar    8  PHE8       -0.0202
      7  CD1       45.5000   13.0360    2.1520 C.ar    8  PHE8       -0.0042
      8  CD2       45.3130   13.2310    4.5760 C.ar    8  PHE8       -0.0042
      9  CE1       46.5600   12.1350    2.2670 C.ar    8  PHE8       -0.0003
     10  CE2       46.3680   12.2800    4.7120 C.ar    8  PHE8       -0.0003
     11  CZ        46.9980   11.7370    3.5690 C.ar    8  PHE8       -0.0000
     12  N         42.0650   12.3970    4.8650 N.am    9  MET9       -0.1979
     13  CA        41.3920   11.9530    6.0570 C.3     9  MET9        0.1605
     14  C         41.6960   12.9180    7.1790 C.2     9  MET9        0.2287
     15  O         42.8550   13.2150    7.4330 O.2     9  MET9       -0.2864
     16  CB        41.8500   10.5230    6.4220 C.3     9  MET9        0.0413
     17  CG        40.6560    9.5350    6.6990 C.3     9  MET9        0.0598
     18  SD        41.2250    8.0810    7.7360 S.3     9  MET9       -0.1393
     19  CE        40.6850    8.8470    9.2810 C.3     9  MET9        0.0692
     20  N         35.3880   15.9700    6.4950 N.3    13  LYS13      -0.1245
     21  CA        34.3330   15.7520    5.4920 C.3    13  LYS13       0.1561
     22  C         33.0340   15.2250    6.1160 C.2    13  LYS13       0.2260
     23  O         32.0220   15.8350    5.9250 O.2    13  LYS13      -0.2867
     24  CB        34.8010   14.8890    4.3440 C.3    13  LYS13       0.0271
     25  CG        36.2010   15.2110    4.0510 C.3    13  LYS13       0.0035
     26  CD        36.6790   14.8120    2.7100 C.3    13  LYS13       0.0206
     27  CE        36.9980   13.4230    2.6710 C.3    13  LYS13       0.1093
     28  NZ        37.9680   12.8680    3.6100 N.3    13  LYS13      -0.1314
     29  N         32.9950    5.5700    2.2590 N.3    32  ASP32      -0.1295
     30  CA        33.7990    4.5680    2.9440 C.3    32  ASP32       0.1359
     31  C         32.8470    3.7240    3.7740 C.3    32  ASP32       0.2015
     32  O         33.0610    2.4540    3.9600 O.3    32  ASP32      -0.2188
     33  CB        34.7240    5.2110    3.9360 C.3    32  ASP32       0.1357
     34  CG        36.0090    5.7550    3.3450 C.2    32  ASP32       0.3664
     35  OD1       36.4820    5.3000    2.2440 O.co2  32  ASP32      -0.2456
     36  OD2       36.6190    6.7040    3.9600 O.co2  32  ASP32      -0.2456
     37  N         37.3050   -0.5830    6.8860 N.3    43  VAL43      -0.1245
     38  CA        38.0750   -0.2490    5.7050 C.3    43  VAL43       0.1561
     39  C         39.4680   -0.6900    6.0000 C.2    43  VAL43       0.2260
     40  O         40.1380   -1.1430    5.0810 O.2    43  VAL43      -0.2867
     41  CB        38.0740    1.3000    5.4290 C.3    43  VAL43       0.0252
     42  CG1       38.9080    1.6420    4.1940 C.3    43  VAL43       0.0019
     43  CG2       36.6500    1.8020    5.2420 C.3    43  VAL43       0.0019
     44  N         41.6100   -3.3200    3.5310 N.3    47  PHE47      -0.1241
     45  CA        43.0130   -3.2150    3.2080 C.3    47  PHE47       0.1605
     46  C         43.8270   -4.3800    3.6160 C.2    47  PHE47       0.2264
     47  O         44.5270   -4.9520    2.7700 O.2    47  PHE47      -0.2867
     48  CB        43.5810   -1.9320    3.7310 C.3    47  PHE47       0.0534
     49  CG        43.2400   -0.6890    2.7980 C.ar   47  PHE47      -0.0203
     50  CD1       41.9080   -0.1870    2.6650 C.ar   47  PHE47      -0.0042
     51  CD2       44.2340   -0.0630    2.0730 C.ar   47  PHE47      -0.0042
     52  CE1       41.6530    0.9030    1.8770 C.ar   47  PHE47      -0.0003
     53  CE2       43.9390    1.0390    1.2420 C.ar   47  PHE47      -0.0003
     54  CZ        42.6920    1.5160    1.1310 C.ar   47  PHE47      -0.0000
     55  N         39.6380   -2.6230   -2.6190 N.3    55  PHE55      -0.1227
     56  CA        38.9390   -1.4820   -2.0790 C.3    55  PHE55       0.1736
     57  C         38.6700   -0.4510   -3.2250 C.2    55  PHE55       0.2595
     58  O         37.5650    0.0490   -3.4760 O.2    55  PHE55      -0.2718
     59  CB        39.7860   -0.8550   -0.9760 C.3    55  PHE55       0.0547
     60  CG        39.1150    0.3670   -0.4020 C.ar   55  PHE55      -0.0202
     61  CD1       39.5620    1.6460   -0.6860 C.ar   55  PHE55      -0.0042
     62  CD2       37.9610    0.2160    0.4400 C.ar   55  PHE55      -0.0042
     63  CE1       38.9280    2.6950   -0.1430 C.ar   55  PHE55      -0.0003
     64  CE2       37.2590    1.2630    0.8800 C.ar   55  PHE55      -0.0003
     65  CZ        37.7000    2.5280    0.5900 C.ar   55  PHE55      -0.0000
     66  N         39.7000   -0.1790   -3.9890 N.am   56  ARG56      -0.1980
     67  CA        39.6950    0.8550   -5.0240 C.3    56  ARG56       0.1597
     68  C         38.6740    0.4240   -6.0940 C.2    56  ARG56       0.2287
     69  O         37.8970    1.2240   -6.7020 O.2    56  ARG56      -0.2864
     70  CB        41.1550    0.9550   -5.5080 C.3    56  ARG56       0.0334
     71  CG        41.7000    2.2970   -5.2820 C.3    56  ARG56       0.0492
     72  CD        42.5840    2.6460   -4.0960 C.3    56  ARG56       0.2205
     73  NE        41.8610    3.6320   -3.3820 N.pl3  56  ARG56      -0.0865
     74  CZ        42.2360    4.3180   -2.3310 C.cat  56  ARG56       0.5346
     75  NH1       43.3780    4.2130   -1.7260 N.pl3  56  ARG56       0.1354
     76  NH2       41.3230    5.1180   -1.8560 N.pl3  56  ARG56       0.1354
     77  N         35.4640    1.3850   -4.5760 N.3    59  GLU59      -0.1245
     78  CA        35.2400    2.8430   -4.8010 C.3    59  GLU59       0.1567
     79  C         34.8090    3.1980   -6.2240 C.2    59  GLU59       0.2260
     80  O         33.8460    3.9590   -6.3980 O.2    59  GLU59      -0.2867
     81  CB        36.4550    3.7060   -4.4990 C.3    59  GLU59       0.0388
     82  CG        36.7990    3.8280   -3.0440 C.3    59  GLU59       0.1160
     83  CD        37.8120    4.9190   -2.8400 C.2    59  GLU59       0.3649
     84  OE1       38.8110    5.0000   -3.5880 O.co2  59  GLU59      -0.2457
     85  OE2       37.5940    5.6210   -1.8740 O.co2  59  GLU59      -0.2457
     86  N         35.8940    8.9250    0.7470 N.3    78  GLY78      -0.1210
     87  CA        37.2340    8.6770    1.2070 C.3    78  GLY78       0.1956
     88  C         38.4070    9.4550    0.6850 C.2    78  GLY78       0.2612
     89  O         38.4620    9.9650   -0.5170 O.2    78  GLY78      -0.2717
     90  N         39.4810    9.4540    1.4870 N.am   79  GLY79      -0.1942
     91  CA        40.7060   10.1670    1.0920 C.3    79  GLY79       0.2014
     92  C         41.1360    9.9320   -0.4040 C.2    79  GLY79       0.2639
     93  O         41.6380   10.8640   -1.0260 O.2    79  GLY79      -0.2714
     94  N         41.0030    8.7120   -0.9620 N.am   80  GLY80      -0.1954
     95  CA        41.6230    8.4440   -2.2350 C.3    80  GLY80       0.1869
     96  C         40.6310    8.4940   -3.3570 C.2    80  GLY80       0.2309
     97  O         40.8960    7.9400   -4.3990 O.2    80  GLY80      -0.2863
     98  N         38.4370    3.1880    9.6610 N.3   111  GLU111     -0.1231
     99  CA        38.4930    3.3440    8.2210 C.3   111  GLU111      0.1699
    100  C         39.8710    3.8310    7.7710 C.2   111  GLU111      0.2592
    101  O         40.0020    4.3500    6.6410 O.2   111  GLU111     -0.2718
    102  CB        37.5300    4.4100    7.8370 C.3   111  GLU111      0.0402
    103  CG        36.1700    3.8780    7.9060 C.3   111  GLU111      0.1161
    104  CD        35.4710    4.4380    9.0680 C.2   111  GLU111      0.3649
    105  OE1       34.4370    5.1470    8.8290 O.co2 111  GLU111     -0.2457
    106  OE2       35.9760    4.1680   10.2010 O.co2 111  GLU111     -0.2457
    107  N         40.8770    3.6870    8.6500 N.am  112  LYS112     -0.1966
    108  CA        42.2350    4.1590    8.3580 C.3   112  LYS112      0.1728
    109  C         43.1220    3.0170    7.8870 C.2   112  LYS112      0.2616
    110  O         43.5340    2.1940    8.6780 O.2   112  LYS112     -0.2715
    111  CB        42.8250    4.9050    9.5500 C.3   112  LYS112      0.0311
    112  CG        43.9880    5.7860    9.2060 C.3   112  LYS112      0.0038
    113  CD        44.8270    6.4790   10.4530 C.3   112  LYS112      0.0206
    114  CE        45.0130    5.6950   11.8050 C.3   112  LYS112      0.1093
    115  NZ        45.8170    6.6080   12.7420 N.3   112  LYS112     -0.1314
    116  N         43.3010    2.9430    6.5680 N.am  113  ARG113     -0.1977
    117  CA        44.4830    2.4430    5.8490 C.3   113  ARG113      0.1597
    118  C         45.6160    2.2210    6.7600 C.2   113  ARG113      0.2287
    119  O         45.9480    3.1070    7.5830 O.2   113  ARG113     -0.2864
    120  CB        44.9940    3.6010    4.9940 C.3   113  ARG113      0.0334
    121  CG        45.0950    3.2740    3.5750 C.3   113  ARG113      0.0492
    122  CD        46.4690    3.3080    3.1340 C.3   113  ARG113      0.2205
    123  NE        46.4080    4.2070    2.0700 N.pl3 113  ARG113     -0.0865
    124  CZ        46.7010    3.8370    0.8550 C.cat 113  ARG113      0.5346
    125  NH1       47.0980    2.5850    0.6440 N.pl3 113  ARG113      0.1354
    126  NH2       46.5800    4.7010   -0.1390 N.pl3 113  ARG113      0.1354
    127  N         48.4240    5.0420    6.4420 N.3   116  LEU116     -0.1245
    128  CA        48.1080    6.2840    7.1960 C.3   116  LEU116      0.1561
    129  C         48.5100    6.1990    8.7020 C.2   116  LEU116      0.2260
    130  O         48.5710    7.2070    9.4270 O.2   116  LEU116     -0.2867
    131  CB        46.6550    6.7850    6.9860 C.3   116  LEU116      0.0270
    132  CG        46.0260    7.2010    5.5570 C.3   116  LEU116      0.0019
    133  CD1       44.6390    7.9380    5.5140 C.3   116  LEU116      0.0001
    134  CD2       46.9840    8.0470    4.6500 C.3   116  LEU116      0.0001
    135  N         51.9650   10.6770    0.8040 N.3   125  LEU125     -0.1301
    136  CA        50.5860   10.5040    0.2260 C.3   125  LEU125      0.1247
    137  C         49.9120   11.8650    0.1640 C.3   125  LEU125      0.2009
    138  O         49.4740   12.3390   -0.9810 O.3   125  LEU125     -0.2188
    139  CB        49.7620    9.6090    1.0910 C.3   125  LEU125      0.0217
    140  CG        48.8490    8.5710    0.4310 C.3   125  LEU125      0.0015
    141  CD1       47.5380    8.3440    1.1640 C.3   125  LEU125      0.0000
    142  CD2       48.7690    8.6180   -1.0770 C.3   125  LEU125      0.0000
    143  N         48.7840   13.7190   -2.9340 N.3   129  ARG129     -0.1245
    144  CA        47.3450   13.9550   -3.1690 C.3   129  ARG129      0.1563
    145  C         46.9410   15.4650   -3.4090 C.2   129  ARG129      0.2260
    146  O         45.9000   15.7470   -4.0990 O.2   129  ARG129     -0.2867
    147  CB        46.5110   13.2790   -2.1020 C.3   129  ARG129      0.0307
    148  CG        46.5300   11.7370   -2.1880 C.3   129  ARG129      0.0489
    149  CD        45.2920   11.0540   -2.7710 C.3   129  ARG129      0.2205
    150  NE        45.3960    9.5930   -2.6460 N.pl3 129  ARG129     -0.0865
    151  CZ        45.0740    8.9810   -1.5380 C.cat 129  ARG129      0.5346
    152  NH1       44.6710    9.7620   -0.5750 N.pl3 129  ARG129      0.1354
    153  NH2       45.2360    7.6460   -1.3540 N.pl3 129  ARG129      0.1354
@<TRIPOS>BOND
     1    69    68    2
     2    80    79    2
     3    79    78    1
     4    68    67    1
     5    70    71    1
     6    70    67    1
     7    71    72    1
     8    67    66    1
     9    78    77    1
    10    78    81    1
    11    81    82    1
    12    97    96    2
    13   146   145    2
    14    72    73    1
    15    66    57   am
    16    84    83   ar
    17    58    57    2
    18   145   144    1
    19    73    74    2
    20    96    95    1
    21    57    56    1
    22   144   143    1
    23   144   147    1
    24    82    83    1
    25    83    85   ar
    26   149   150    1
    27   149   148    1
    28   150   151    2
    29    55    56    1
    30    74    76    1
    31    74    75    1
    32    95    94    1
    33   148   147    1
    34    56    59    1
    35   151   153    1
    36   151   152    1
    37   142   140    1
    38    93    92    2
    39   138   137    1
    40    59    60    1
    41    94    92   am
    42    61    60   ar
    43    61    63   ar
    44    89    88    2
    45    92    91    1
    46    60    62   ar
    47    63    65   ar
    48   126   124    1
    49   137   136    1
    50   136   135    1
    51   136   139    1
    52   140   139    1
    53   140   141    1
    54    62    64   ar
    55    65    64   ar
    56   125   124    1
    57    88    87    1
    58    88    90   am
    59    86    87    1
    60   124   123    2
    61    91    90    1
    62    54    53   ar
    63    54    52   ar
    64    53    51   ar
    65    52    50   ar
    66   123   122    1
    67    51    49   ar
    68     7     9   ar
    69     7     6   ar
    70    35    34   ar
    71    29    30    1
    72     9    11   ar
    73     1     2    1
    74    50    49   ar
    75    27    26    1
    76    27    28    1
    77    26    25    1
    78    47    46    2
    79    49    48    1
    80    30    31    1
    81    30    33    1
    82     2     5    1
    83     2     3    1
    84   122   121    1
    85     5     6    1
    86    45    44    1
    87    45    46    1
    88    45    48    1
    89     6     8   ar
    90    34    33    1
    91    34    36   ar
    92    11    10   ar
    93   121   120    1
    94    31    32    1
    95    25    24    1
    96    42    41    1
    97    24    21    1
    98     3    12   am
    99     3     4    2
   100     8    10   ar
   101   134   132    1
   102    12    13    1
   103   120   117    1
   104    40    39    2
   105    43    41    1
   106    41    38    1
   107    21    22    1
   108    21    20    1
   109   133   132    1
   110   132   131    1
   111    38    39    1
   112    38    37    1
   113   117   116    1
   114   117   118    1
   115    23    22    2
   116    13    16    1
   117    13    14    1
   118    16    17    1
   119   127   128    1
   120   116   109   am
   121   101   100    2
   122    17    18    1
   123   118   119    2
   124   131   128    1
   125    14    15    2
   126   128   129    1
   127    18    19    1
   128   100    99    1
   129   100   107   am
   130   102   103    1
   131   102    99    1
   132   109   108    1
   133   109   110    2
   134   103   104    1
   135    99    98    1
   136   108   107    1
   137   108   111    1
   138   129   130    2
   139   105   104   ar
   140   104   106   ar
   141   112   111    1
   142   112   113    1
   143   113   114    1
   144   114   115    1
