@<TRIPOS>MOLECULE
tmp/1zunB00.pdb
 118 113 0 0 0
SMALL
GASTEIGER

@<TRIPOS>ATOM
      1  N         37.6630   92.0480   78.4250 N.3    16  ASN16      -0.1225
      2  CA        39.1110   91.9980   78.5930 C.3    16  ASN16       0.1785
      3  C         39.5400   91.4760   79.9620 C.2    16  ASN16       0.2597
      4  O         38.7040   91.2110   80.8240 O.2    16  ASN16      -0.2718
      5  CB        39.7380   93.3680   78.3010 C.3    16  ASN16       0.1169
      6  CG        39.8900   93.6420   76.8070 C.2    16  ASN16       0.2627
      7  OD1       40.6880   94.4850   76.4060 O.2    16  ASN16      -0.2716
      8  ND2       39.1260   92.9340   75.9810 N.am   16  ASN16      -0.0877
      9  N         40.8500   91.3250   80.1380 N.am   17  VAL17      -0.1966
     10  CA        41.4550   90.8330   81.3750 C.3    17  VAL17       0.1727
     11  C         40.8710   91.5200   82.6090 C.2    17  VAL17       0.2616
     12  O         40.8440   92.7500   82.6870 O.2    17  VAL17      -0.2715
     13  CB        42.9920   91.0330   81.3630 C.3    17  VAL17       0.0290
     14  CG1       43.6560   90.2180   82.4670 C.3    17  VAL17       0.0023
     15  CG2       43.5740   90.6540   80.0070 C.3    17  VAL17       0.0023
     16  N         40.3940   90.7090   83.5530 N.am   18  ASP18      -0.1957
     17  CA        39.8950   91.1740   84.8540 C.3    18  ASP18       0.1840
     18  C         38.5050   91.8140   84.8420 C.2    18  ASP18       0.2622
     19  O         38.1120   92.4360   85.8270 O.2    18  ASP18      -0.2715
     20  CB        40.8980   92.1200   85.5370 C.3    18  ASP18       0.1450
     21  CG        42.1440   91.4060   86.0220 C.2    18  ASP18       0.3671
     22  OD1       42.0360   90.5480   86.9250 O.co2  18  ASP18      -0.2456
     23  OD2       43.2380   91.7160   85.5080 O.co2  18  ASP18      -0.2456
     24  N         37.7620   91.6750   83.7460 N.am   19  ASP19      -0.1957
     25  CA        36.3790   92.1460   83.7180 C.3    19  ASP19       0.1840
     26  C         35.5180   91.2230   84.5650 C.2    19  ASP19       0.2623
     27  O         34.5230   91.6490   85.1550 O.2    19  ASP19      -0.2715
     28  CB        35.8410   92.2180   82.2890 C.3    19  ASP19       0.1450
     29  CG        36.3770   93.4130   81.5200 C.2    19  ASP19       0.3671
     30  OD1       36.1660   93.4690   80.2900 O.co2  19  ASP19      -0.2456
     31  OD2       37.0090   94.2980   82.1400 O.co2  19  ASP19      -0.2456
     32  N         35.9210   89.9560   84.6180 N.am   20  GLY20      -0.1940
     33  CA        35.3020   88.9760   85.4970 C.3    20  GLY20       0.2014
     34  C         34.5720   87.8660   84.7740 C.2    20  GLY20       0.2639
     35  O         33.6080   87.3190   85.3060 O.2    20  GLY20      -0.2714
     36  N         35.0280   87.5130   83.5730 N.am   21  LYS21      -0.1963
     37  CA        34.3230   86.4890   82.7970 C.3    21  LYS21       0.1728
     38  C         34.5930   85.0390   83.2090 C.2    21  LYS21       0.2617
     39  O         33.7350   84.1780   83.0180 O.2    21  LYS21      -0.2715
     40  CB        34.4480   86.7000   81.2820 C.3    21  LYS21       0.0311
     41  CG        35.8260   86.5630   80.6710 C.3    21  LYS21       0.0038
     42  CD        35.7250   86.7810   79.1610 C.3    21  LYS21       0.0206
     43  CE        37.0500   86.5390   78.4540 C.3    21  LYS21       0.1093
     44  NZ        36.8930   86.6700   76.9790 N.3    21  LYS21      -0.1314
     45  N         35.7640   84.7720   83.7820 N.am   22  SER22      -0.1936
     46  CA        36.0210   83.4610   84.3780 C.3    22  SER22       0.2055
     47  C         35.1220   83.2360   85.5900 C.2    22  SER22       0.2643
     48  O         34.6340   82.1260   85.8090 O.2    22  SER22      -0.2714
     49  CB        37.4890   83.3000   84.7660 C.3    22  SER22       0.2130
     50  OG        38.2610   82.8890   83.6540 O.3    22  SER22      -0.2179
     51  N         34.9070   84.2980   86.3630 N.am   23  THR23      -0.1950
     52  CA        33.9920   84.2630   87.4980 C.3    23  THR23       0.1897
     53  C         32.5470   84.1100   87.0210 C.2    23  THR23       0.2313
     54  O         31.7870   83.3360   87.5960 O.2    23  THR23      -0.2863
     55  CB        34.1240   85.5270   88.3820 C.3    23  THR23       0.1794
     56  OG1       35.5060   85.8540   88.5560 O.3    23  THR23      -0.2208
     57  CG2       33.4900   85.3020   89.7490 C.3    23  THR23       0.0378
     58  N         40.4670   80.0290   84.9260 N.3    46  GLN46      -0.1245
     59  CA        41.5320   81.0240   84.9950 C.3    46  GLN46       0.1566
     60  C         42.8740   80.4410   84.5510 C.2    46  GLN46       0.2260
     61  O         43.7830   81.1830   84.1810 O.2    46  GLN46      -0.2867
     62  CB        41.6410   81.6060   86.4070 C.3    46  GLN46       0.0367
     63  CG        40.6030   82.6760   86.7190 C.3    46  GLN46       0.0905
     64  CD        40.6280   83.1450   88.1670 C.2    46  GLN46       0.2608
     65  OE1       41.1390   82.4590   89.0550 O.2    46  GLN46      -0.2717
     66  NE2       40.0610   84.3210   88.4100 N.am   46  GLN46      -0.0878
     67  N         29.3050   94.5130   85.1930 N.3   122  ASN122     -0.1225
     68  CA        29.7770   93.7020   86.3070 C.3   122  ASN122      0.1785
     69  C         30.4580   94.5390   87.3900 C.2   122  ASN122      0.2597
     70  O         30.8090   95.6990   87.1610 O.2   122  ASN122     -0.2718
     71  CB        30.7250   92.6160   85.7870 C.3   122  ASN122      0.1169
     72  CG        30.9930   91.5290   86.8130 C.2   122  ASN122      0.2627
     73  OD1       32.1290   91.0790   86.9770 O.2   122  ASN122     -0.2716
     74  ND2       29.9510   91.1100   87.5190 N.am  122  ASN122     -0.0877
     75  N         30.6380   93.9350   88.5640 N.am  123  LYS123     -0.1980
     76  CA        31.2720   94.5760   89.7150 C.3   123  LYS123      0.1596
     77  C         30.4480   95.7310   90.2780 C.2   123  LYS123      0.2287
     78  O         30.9970   96.6760   90.8460 O.2   123  LYS123     -0.2864
     79  CB        32.7010   95.0180   89.3830 C.3   123  LYS123      0.0298
     80  CG        33.5880   93.8820   88.9060 C.3   123  LYS123      0.0038
     81  CD        35.0020   94.3410   88.6330 C.3   123  LYS123      0.0206
     82  CE        35.7520   93.2980   87.8280 C.3   123  LYS123      0.1093
     83  NZ        37.2110   93.5460   87.8530 N.3   123  LYS123     -0.1314
     84  N         28.7280   95.4990   92.7590 N.3   124  ASP124     -0.1225
     85  CA        28.8630   95.3670   94.2080 C.3   124  ASP124      0.1805
     86  C         29.8690   96.3700   94.7590 C.2   124  ASP124      0.2597
     87  O         29.7500   96.8040   95.9050 O.2   124  ASP124     -0.2718
     88  CB        29.2540   93.9390   94.6140 C.3   124  ASP124      0.1424
     89  CG        30.6070   93.5200   94.0670 C.2   124  ASP124      0.3668
     90  OD1       30.7200   93.3260   92.8370 O.co2 124  ASP124     -0.2456
     91  OD2       31.5550   93.3770   94.8680 O.co2 124  ASP124     -0.2456
     92  N         30.8440   96.7430   93.9300 N.am  125  LEU125     -0.1979
     93  CA        31.9010   97.6680   94.3330 C.3   125  LEU125      0.1596
     94  C         31.4090   99.1080   94.4870 C.2   125  LEU125      0.2287
     95  O         31.8910   99.8300   95.3560 O.2   125  LEU125     -0.2864
     96  CB        33.0830   97.6040   93.3570 C.3   125  LEU125      0.0297
     97  CG        33.8620   96.2870   93.2540 C.3   125  LEU125      0.0022
     98  CD1       34.9440   96.3880   92.1900 C.3   125  LEU125      0.0001
     99  CD2       34.4680   95.8900   94.5920 C.3   125  LEU125      0.0001
    100  N         26.8450   91.2110   89.9190 N.3   158  SER158     -0.1202
    101  CA        28.1170   90.9080   90.5450 C.3   158  SER158      0.2020
    102  C         28.3930   89.4340   90.2910 C.2   158  SER158      0.2619
    103  O         27.7580   88.5660   90.8860 O.2   158  SER158     -0.2717
    104  CB        28.0710   91.2000   92.0480 C.3   158  SER158      0.2103
    105  OG        29.3110   90.8950   92.6630 O.3   158  SER158     -0.2182
    106  N         29.3210   89.1570   89.3820 N.am  159  ALA159     -0.1965
    107  CA        29.7220   87.7890   89.0780 C.3   159  ALA159      0.1728
    108  C         30.2600   87.1140   90.3350 C.2   159  ALA159      0.2616
    109  O         29.9440   85.9540   90.6120 O.2   159  ALA159     -0.2715
    110  CB        30.7650   87.7790   87.9700 C.3   159  ALA159      0.0334
    111  N         31.0450   87.8690   91.0990 N.am  160  LEU160     -0.1977
    112  CA        31.6390   87.3960   92.3440 C.3   160  LEU160      0.1596
    113  C         30.6040   87.0200   93.4050 C.2   160  LEU160      0.2287
    114  O         30.7300   85.9800   94.0550 O.2   160  LEU160     -0.2864
    115  CB        32.6100   88.4430   92.9090 C.3   160  LEU160      0.0297
    116  CG        33.3590   88.0520   94.1900 C.3   160  LEU160      0.0022
    117  CD1       34.3140   86.8900   93.9340 C.3   160  LEU160      0.0001
    118  CD2       34.1020   89.2350   94.7950 C.3   160  LEU160      0.0001
@<TRIPOS>BOND
     1     8     6   am
     2     7     6    2
     3     6     5    1
     4    44    43    1
     5     5     2    1
     6     1     2    1
     7    43    42    1
     8     2     3    1
     9    42    41    1
    10     3     9   am
    11     3     4    2
    12    15    13    1
    13     9    10    1
    14    30    29   ar
    15    41    40    1
    16    40    37    1
    17    13    10    1
    18    13    14    1
    19    10    11    1
    20    29    31   ar
    21    29    28    1
    22    28    25    1
    23    11    12    2
    24    11    16   am
    25    37    38    1
    26    37    36    1
    27    39    38    2
    28    38    45   am
    29    16    17    1
    30    36    34   am
    31    50    49    1
    32    25    24    1
    33    25    26    1
    34    24    18   am
    35    45    46    1
    36    61    60    2
    37    46    49    1
    38    46    47    1
    39    60    59    1
    40    26    32   am
    41    26    27    2
    42    32    33    1
    43    34    35    2
    44    34    33    1
    45    18    17    1
    46    18    19    2
    47    17    20    1
    48    58    59    1
    49    59    62    1
    50    67    68    1
    51    23    21   ar
    52    20    21    1
    53    47    48    2
    54    47    51   am
    55    71    68    1
    56    71    72    1
    57    21    22   ar
    58    68    69    1
    59    51    52    1
    60    62    63    1
    61    63    64    1
    62    72    73    2
    63    72    74   am
    64    53    52    1
    65    53    54    2
    66    70    69    2
    67    69    75   am
    68    52    55    1
    69    82    83    1
    70    82    81    1
    71   110   107    1
    72    64    66   am
    73    64    65    2
    74    55    56    1
    75    55    57    1
    76    75    76    1
    77    81    80    1
    78    80    79    1
    79   107   106    1
    80   107   108    1
    81   106   102   am
    82    79    76    1
    83    76    77    1
    84   100   101    1
    85    77    78    2
    86   102   101    1
    87   102   103    2
    88   108   109    2
    89   108   111   am
    90   101   104    1
    91   111   112    1
    92   104   105    1
    93    98    97    1
    94   112   115    1
    95   112   113    1
    96    84    85    1
    97    90    89   ar
    98   115   116    1
    99    97    96    1
   100    97    99    1
   101    96    93    1
   102   113   114    2
   103    92    93    1
   104    92    86   am
   105   117   116    1
   106    89    88    1
   107    89    91   ar
   108   116   118    1
   109    85    88    1
   110    85    86    1
   111    93    94    1
   112    94    95    2
   113    86    87    2
