@<TRIPOS>MOLECULE
tmp/1zunA00.pdb
 137 129 0 0 0
SMALL
GASTEIGER

@<TRIPOS>ATOM
      1  N         35.4830   55.3900   62.0430 N.3    37  LEU37      -0.1231
      2  CA        36.1220   54.6900   63.1480 C.3    37  LEU37       0.1693
      3  C         35.0470   54.3100   64.1540 C.2    37  LEU37       0.2592
      4  O         34.5250   55.1630   64.8710 O.2    37  LEU37      -0.2718
      5  CB        37.1850   55.5770   63.8040 C.3    37  LEU37       0.0284
      6  CG        38.6360   55.5640   63.3100 C.3    37  LEU37       0.0019
      7  CD1       38.7740   55.3440   61.8050 C.3    37  LEU37       0.0001
      8  CD2       39.3310   56.8560   63.7360 C.3    37  LEU37       0.0001
      9  N         34.6920   53.0310   64.1740 N.am   38  TYR38      -0.1962
     10  CA        33.6590   52.5360   65.0720 C.3    38  TYR38       0.1771
     11  C         34.2790   51.7000   66.1840 C.2    38  TYR38       0.2620
     12  O         34.9020   50.6690   65.9220 O.2    38  TYR38      -0.2715
     13  CB        32.6070   51.7370   64.2910 C.3    38  TYR38       0.0574
     14  CG        31.7090   50.8600   65.1400 C.ar   38  TYR38      -0.0198
     15  CD1       30.7890   51.4180   66.0260 C.ar   38  TYR38      -0.0009
     16  CD2       31.7690   49.4720   65.0420 C.ar   38  TYR38      -0.0009
     17  CE1       29.9660   50.6180   66.8060 C.ar   38  TYR38       0.0417
     18  CE2       30.9470   48.6620   65.8160 C.ar   38  TYR38       0.0417
     19  CZ        30.0510   49.2410   66.6960 C.ar   38  TYR38       0.1957
     20  OH        29.2350   48.4470   67.4670 O.3    38  TYR38      -0.2866
     21  N         34.1260   52.1690   67.4210 N.am   39  SER39      -0.1950
     22  CA        34.5270   51.4160   68.6040 C.3    39  SER39       0.1924
     23  C         33.6420   50.1840   68.7020 C.2    39  SER39       0.2314
     24  O         33.3630   49.5310   67.7000 O.2    39  SER39      -0.2863
     25  CB        34.3440   52.2680   69.8620 C.3    39  SER39       0.2116
     26  OG        35.2900   53.3150   69.9290 O.3    39  SER39      -0.2180
     27  N         31.5730   50.9620   71.4710 N.3    41  GLY41      -0.1210
     28  CA        31.0190   51.7310   72.5810 C.3    41  GLY41       0.1956
     29  C         29.8910   52.6720   72.2060 C.2    41  GLY41       0.2612
     30  O         29.4140   52.6720   71.0700 O.2    41  GLY41      -0.2717
     31  N         29.4870   53.4990   73.1670 N.am   42  LYS42      -0.1965
     32  CA        28.2240   54.2300   73.0820 C.3    42  LYS42       0.1728
     33  C         28.2290   55.4460   72.1580 C.2    42  LYS42       0.2616
     34  O         27.2360   55.7130   71.4790 O.2    42  LYS42      -0.2715
     35  CB        27.6990   54.5840   74.4800 C.3    42  LYS42       0.0311
     36  CG        28.6620   55.3410   75.3840 C.3    42  LYS42       0.0038
     37  CD        28.2240   56.7830   75.5420 C.3    42  LYS42       0.0206
     38  CE        28.7130   57.3640   76.8570 C.3    42  LYS42       0.1093
     39  NZ        28.2290   58.7640   77.0340 N.3    42  LYS42      -0.1314
     40  N         29.3360   56.1800   72.1280 N.am   43  ASP43      -0.1957
     41  CA        29.4230   57.3640   71.2800 C.3    43  ASP43       0.1840
     42  C         29.4980   56.9750   69.8080 C.2    43  ASP43       0.2622
     43  O         28.8540   57.6050   68.9670 O.2    43  ASP43      -0.2715
     44  CB        30.6090   58.2440   71.6800 C.3    43  ASP43       0.1450
     45  CG        30.4610   58.8250   73.0780 C.2    43  ASP43       0.3671
     46  OD1       29.6500   59.7600   73.2660 O.co2  43  ASP43      -0.2456
     47  OD2       31.1710   58.3500   73.9900 O.co2  43  ASP43      -0.2456
     48  N         30.2600   55.9250   69.5050 N.am   44  SER44      -0.1950
     49  CA        30.3950   55.4400   68.1310 C.3    44  SER44       0.1924
     50  C         29.0830   54.8620   67.5960 C.2    44  SER44       0.2314
     51  O         28.8440   54.8610   66.3850 O.2    44  SER44      -0.2863
     52  CB        31.5180   54.4110   68.0250 C.3    44  SER44       0.2116
     53  OG        31.1690   53.2190   68.6990 O.3    44  SER44      -0.2180
     54  N         37.1660   49.0100   62.8620 N.3    64  HIS64      -0.1226
     55  CA        37.4070   48.7540   64.2760 C.3    64  HIS64       0.1752
     56  C         38.8600   48.3500   64.5120 C.2    64  HIS64       0.2595
     57  O         39.3050   47.2960   64.0490 O.2    64  HIS64      -0.2718
     58  CB        36.4520   47.6850   64.8180 C.3    64  HIS64       0.0759
     59  CG        36.7090   47.3130   66.2470 C.ar   64  HIS64       0.0818
     60  ND1       36.9660   46.0190   66.6440 N.ar   64  HIS64      -0.2268
     61  CD2       36.7640   48.0700   67.3690 C.ar   64  HIS64       0.1154
     62  CE1       37.1590   45.9930   67.9510 C.ar   64  HIS64       0.1986
     63  NE2       37.0450   47.2240   68.4150 N.ar   64  HIS64      -0.2212
     64  N         39.5890   49.2070   65.2240 N.am   65  VAL65      -0.1980
     65  CA        40.9620   48.9210   65.6310 C.3    65  VAL65       0.1595
     66  C         40.9290   47.9390   66.7990 C.2    65  VAL65       0.2287
     67  O         40.6490   48.3220   67.9370 O.2    65  VAL65      -0.2864
     68  CB        41.7250   50.2060   66.0320 C.3    65  VAL65       0.0276
     69  CG1       43.1670   49.8890   66.3970 C.3    65  VAL65       0.0022
     70  CG2       41.6840   51.2220   64.9050 C.3    65  VAL65       0.0022
     71  N         38.9180   42.9280   74.1420 N.3    70  LYS70      -0.1245
     72  CA        37.9920   43.7570   74.9060 C.3    70  LYS70       0.1561
     73  C         36.9210   42.8420   75.5020 C.2    70  LYS70       0.2260
     74  O         36.9700   41.6270   75.3050 O.2    70  LYS70      -0.2867
     75  CB        37.3630   44.8250   74.0080 C.3    70  LYS70       0.0271
     76  CG        38.3950   45.7820   73.4790 C.3    70  LYS70       0.0035
     77  CD        37.8270   46.6310   72.3760 C.3    70  LYS70       0.0206
     78  CE        38.7690   47.7560   71.9490 C.3    70  LYS70       0.1093
     79  NZ        38.2820   48.4200   70.7200 N.3    70  LYS70      -0.1314
     80  N         46.3410   50.5220   69.8490 N.3    99  LYS99      -0.1245
     81  CA        45.3900   51.5080   69.3420 C.3    99  LYS99       0.1561
     82  C         46.0630   52.5520   68.4550 C.2    99  LYS99       0.2260
     83  O         45.7970   52.6090   67.2530 O.2    99  LYS99      -0.2867
     84  CB        44.6280   52.1900   70.4840 C.3    99  LYS99       0.0271
     85  CG        43.3590   51.4730   70.9140 C.3    99  LYS99       0.0035
     86  CD        42.4550   52.4020   71.7080 C.3    99  LYS99       0.0206
     87  CE        41.0640   51.8170   71.8580 C.3    99  LYS99       0.1093
     88  NZ        40.1290   52.7660   72.5190 N.3    99  LYS99      -0.1314
     89  N         45.7000   52.0730   64.5400 N.3   103  LEU103     -0.1245
     90  CA        44.8750   53.0030   63.7720 C.3   103  LEU103      0.1561
     91  C         45.6970   53.7110   62.6970 C.2   103  LEU103      0.2260
     92  O         45.2470   53.8680   61.5610 O.2   103  LEU103     -0.2867
     93  CB        44.2190   54.0280   64.7060 C.3   103  LEU103      0.0270
     94  CG        43.3670   55.1470   64.0950 C.3   103  LEU103      0.0019
     95  CD1       42.1950   54.5780   63.3020 C.3   103  LEU103      0.0001
     96  CD2       42.8850   56.1080   65.1770 C.3   103  LEU103      0.0001
     97  N         35.8090   60.2400   63.8840 N.3   117  GLY117     -0.1210
     98  CA        35.9310   59.8940   65.2930 C.3   117  GLY117      0.1956
     99  C         34.7600   60.4480   66.0790 C.2   117  GLY117      0.2612
    100  O         34.2620   61.5360   65.7820 O.2   117  GLY117     -0.2717
    101  N         34.3160   59.6960   67.0800 N.am  118  GLY118     -0.1942
    102  CA        33.1580   60.0860   67.8770 C.3   118  GLY118      0.2014
    103  C         33.5000   60.8190   69.1600 C.2   118  GLY118      0.2638
    104  O         32.6750   60.8910   70.0710 O.2   118  GLY118     -0.2714
    105  N         34.7100   61.3670   69.2310 N.am  119  ALA119     -0.1977
    106  CA        35.1580   62.1140   70.4040 C.3   119  ALA119      0.1597
    107  C         34.3360   63.3860   70.6040 C.2   119  ALA119      0.2287
    108  O         33.9190   64.0160   69.6340 O.2   119  ALA119     -0.2864
    109  CB        36.6400   62.4440   70.2920 C.3   119  ALA119      0.0319
    110  N         34.4050   65.8250   76.8830 N.3   123  GLU123     -0.1245
    111  CA        34.9790   64.6000   77.4450 C.3   123  GLU123      0.1567
    112  C         36.2920   64.8260   78.1860 C.2   123  GLU123      0.2260
    113  O         36.5580   64.1750   79.1970 O.2   123  GLU123     -0.2867
    114  CB        35.1680   63.5420   76.3570 C.3   123  GLU123      0.0388
    115  CG        33.8890   62.8090   75.9980 C.3   123  GLU123      0.1160
    116  CD        34.1040   61.7120   74.9770 C.2   123  GLU123      0.3649
    117  OE1       34.6120   62.0080   73.8750 O.co2 123  GLU123     -0.2457
    118  OE2       33.7510   60.5480   75.2710 O.co2 123  GLU123     -0.2457
    119  N         27.5970   64.3820   77.3490 N.3   175  GLU175     -0.1245
    120  CA        27.2770   63.0690   77.9130 C.3   175  GLU175      0.1567
    121  C         25.7680   62.8570   78.0220 C.2   175  GLU175      0.2260
    122  O         25.2640   61.7740   77.7220 O.2   175  GLU175     -0.2867
    123  CB        27.9310   62.8960   79.2870 C.3   175  GLU175      0.0388
    124  CG        29.2960   62.2160   79.2650 C.3   175  GLU175      0.1160
    125  CD        29.2190   60.7140   79.5060 C.2   175  GLU175      0.3649
    126  OE1       28.4600   60.2840   80.4020 O.co2 175  GLU175     -0.2457
    127  OE2       29.9320   59.9620   78.8070 O.co2 175  GLU175     -0.2457
    128  N         31.0570   53.3190   80.9320 N.3   195  ALA195     -0.1231
    129  CA        31.9480   53.7770   79.8590 C.3   195  ALA195      0.1694
    130  C         33.0680   52.7820   79.5590 C.2   195  ALA195      0.2591
    131  O         33.8960   52.4810   80.4220 O.2   195  ALA195     -0.2718
    132  CB        32.5220   55.1450   80.1960 C.3   195  ALA195      0.0304
    133  N         33.0740   52.2690   78.3320 N.am  196  ALA196     -0.1980
    134  CA        33.9570   51.1730   77.9440 C.3   196  ALA196      0.1597
    135  C         35.4180   51.6070   77.8630 C.2   196  ALA196      0.2287
    136  O         35.8920   52.0490   76.8170 O.2   196  ALA196     -0.2864
    137  CB        33.4920   50.5640   76.6250 C.3   196  ALA196      0.0319
@<TRIPOS>BOND
     1    92    91    2
     2     7     6    1
     3     1     2    1
     4    91    90    1
     5    54    55    1
     6     2     5    1
     7     2     3    1
     8    95    94    1
     9     6     8    1
    10     6     5    1
    11    90    89    1
    12    90    93    1
    13    97    98    1
    14    57    56    2
    15    94    93    1
    16    94    96    1
    17     3     9   am
    18     3     4    2
    19     9    10    1
    20    55    56    1
    21    55    58    1
    22    13    10    1
    23    13    14    1
    24    56    64   am
    25    58    59    1
    26    70    68    1
    27    16    14   ar
    28    16    18   ar
    29    10    11    1
    30    14    15   ar
    31    64    65    1
    32    98    99    1
    33    65    68    1
    34    65    66    1
    35   100    99    2
    36    18    19   ar
    37    12    11    2
    38    15    17   ar
    39    68    69    1
    40    99   101   am
    41    11    21   am
    42    59    60   ar
    43    59    61   ar
    44    51    50    2
    45    60    62   ar
    46    19    17   ar
    47    19    20    1
    48    66    67    2
    49   101   102    1
    50    83    82    2
    51    61    63   ar
    52    21    22    1
    53    50    49    1
    54    24    23    2
    55   102   103    1
    56    62    63   ar
    57    52    49    1
    58    52    53    1
    59    49    48    1
    60    82    81    1
    61    22    23    1
    62    22    25    1
    63    43    42    2
    64   103   105   am
    65   103   104    2
    66   105   106    1
    67    81    80    1
    68    81    84    1
    69    48    42   am
    70   108   107    2
    71    42    41    1
    72    25    26    1
    73   109   106    1
    74   106   107    1
    75    84    85    1
    76    79    78    1
    77    85    86    1
    78    30    29    2
    79    41    44    1
    80    41    40    1
    81    27    28    1
    82    34    33    2
    83    44    45    1
    84    86    87    1
    85    87    88    1
    86    78    77    1
    87    40    33   am
    88    33    32    1
    89    29    28    1
    90    29    31   am
    91    77    76    1
    92    45    46   ar
    93    45    47   ar
    94    32    31    1
    95    32    35    1
    96    76    75    1
    97   117   116   ar
    98    75    72    1
    99    71    72    1
   100    35    36    1
   101    72    73    1
   102   116   118   ar
   103   116   115    1
   104    74    73    2
   105    36    37    1
   106    37    38    1
   107   115   114    1
   108   114   111    1
   109   137   134    1
   110   136   135    2
   111    38    39    1
   112   110   111    1
   113   119   120    1
   114   111   112    1
   115   122   121    2
   116   135   134    1
   117   120   121    1
   118   120   123    1
   119   134   133    1
   120   112   113    2
   121   133   130   am
   122   127   125   ar
   123   124   123    1
   124   124   125    1
   125   125   126   ar
   126   130   129    1
   127   130   131    2
   128   129   132    1
   129   129   128    1
