@<TRIPOS>MOLECULE
tmp/1zuwC00.pdb
 119 116 0 0 0
SMALL
GASTEIGER

@<TRIPOS>ATOM
      1  N         33.2310   26.6080    7.1100 N.3     9  ASP9       -0.1225
      2  CA        32.2240   27.3740    6.3860 C.3     9  ASP9        0.1805
      3  C         32.9190   28.3560    5.4710 C.2     9  ASP9        0.2598
      4  O         34.1190   28.5890    5.5840 O.2     9  ASP9       -0.2718
      5  CB        31.3360   28.1530    7.3790 C.3     9  ASP9        0.1424
      6  CG        30.2680   29.0050    6.6680 C.2     9  ASP9        0.3668
      7  OD1       29.4550   28.4050    5.9680 O.co2   9  ASP9       -0.2456
      8  OD2       30.2530   30.2630    6.8090 O.co2   9  ASP9       -0.2456
      9  N         32.1760   28.9390    4.5300 N.am   10  SER10      -0.1952
     10  CA        32.8240   29.8830    3.6360 C.3    10  SER10       0.1924
     11  C         33.0620   31.2320    4.3440 C.2    10  SER10       0.2314
     12  O         33.7790   32.0800    3.7980 O.2    10  SER10      -0.2863
     13  CB        31.9320   30.1470    2.3960 C.3    10  SER10       0.2116
     14  OG        30.7100   30.6760    2.8860 O.3    10  SER10      -0.2180
     15  N         34.8720   34.2360    0.5840 N.3    39  CYS39      -0.1221
     16  CA        33.4020   34.1380    0.6150 C.3    39  CYS39       0.1794
     17  C         32.9750   35.1360   -0.4840 C.2    39  CYS39       0.2443
     18  O         33.5740   36.2010   -0.6090 O.2    39  CYS39      -0.2733
     19  CB        32.8900   34.6060    1.9860 C.3    39  CYS39       0.0970
     20  SG        31.1240   34.4390    2.2400 S.3    39  CYS39      -0.0800
     21  N         31.8790   34.8590   -1.2250 N.am   40  PRO40      -0.2718
     22  CA        30.9610   33.7310   -1.1690 C.3    40  PRO40       0.1535
     23  C         31.3270   32.5890   -2.0770 C.2    40  PRO40       0.2599
     24  O         31.9760   32.7500   -3.1000 O.2    40  PRO40      -0.2715
     25  CB        29.6370   34.3640   -1.6320 C.3    40  PRO40       0.0310
     26  CG        30.1220   35.2520   -2.8010 C.3    40  PRO40       0.0237
     27  CD        31.5100   35.7720   -2.3330 C.3    40  PRO40       0.0939
     28  N         30.8320   31.4070   -1.6920 N.am   41  TYR41      -0.1960
     29  CA        31.0190   30.2320   -2.4820 C.3    41  TYR41       0.1771
     30  C         29.7610   29.9700   -3.3660 C.2    41  TYR41       0.2620
     31  O         29.8440   29.2640   -4.3770 O.2    41  TYR41      -0.2715
     32  CB        31.1200   29.0050   -1.5860 C.3    41  TYR41       0.0574
     33  CG        32.4290   28.8090   -0.8690 C.ar   41  TYR41      -0.0198
     34  CD1       32.6510   27.6280   -0.1590 C.ar   41  TYR41      -0.0009
     35  CD2       33.4080   29.7980   -0.8520 C.ar   41  TYR41      -0.0009
     36  CE1       33.8430   27.4330    0.5760 C.ar   41  TYR41       0.0417
     37  CE2       34.6180   29.6060   -0.1280 C.ar   41  TYR41       0.0417
     38  CZ        34.8110   28.4260    0.5770 C.ar   41  TYR41       0.1957
     39  OH        35.9940   28.2440    1.2990 O.3    41  TYR41      -0.2866
     40  N         28.6390   30.5380   -2.9650 N.am   42  GLY42      -0.1940
     41  CA        27.3610   30.3130   -3.6510 C.3    42  GLY42       0.1998
     42  C         27.3840   30.4240   -5.1640 C.2    42  GLY42       0.2480
     43  O         26.8720   29.5520   -5.8690 O.2    42  GLY42      -0.2729
     44  N         28.0300   31.4530   -5.7080 N.am   43  PRO43      -0.2726
     45  CA        28.0220   31.5510   -7.1740 C.3    43  PRO43       0.1402
     46  C         29.2840   31.1340   -7.9230 C.2    43  PRO43       0.2269
     47  O         29.3850   31.3310   -9.1560 O.2    43  PRO43      -0.2865
     48  CB        27.7210   33.0390   -7.3950 C.3    43  PRO43       0.0296
     49  CG        28.5260   33.6810   -6.3070 C.3    43  PRO43       0.0237
     50  CD        28.4160   32.7350   -5.0830 C.3    43  PRO43       0.0939
     51  N         28.5390   24.9560    5.8510 N.3    73  CYS73      -0.1221
     52  CA        28.1390   25.6690    4.6190 C.3    73  CYS73       0.1808
     53  C         27.2850   24.7600    3.7340 C.2    73  CYS73       0.2601
     54  O         27.6890   23.6390    3.4330 O.2    73  CYS73      -0.2717
     55  CB        29.3870   26.1060    3.8740 C.3    73  CYS73       0.0970
     56  SG        29.0870   26.9550    2.2570 S.3    73  CYS73      -0.0800
     57  N         26.0730   25.2060    3.3990 N.am   74  ASN74      -0.1960
     58  CA        25.1830   24.3900    2.5260 C.3    74  ASN74       0.1819
     59  C         25.7680   24.3180    1.1420 C.2    74  ASN74       0.2621
     60  O         25.5730   23.3120    0.4650 O.2    74  ASN74      -0.2715
     61  CB        23.7380   25.0240    2.4080 C.3    74  ASN74       0.1195
     62  CG        23.0120   25.0770    3.7400 C.2    74  ASN74       0.2630
     63  OD1       22.0600   24.3020    4.0180 O.2    74  ASN74      -0.2716
     64  ND2       23.4610   25.9570    4.5880 N.am   74  ASN74      -0.0877
     65  N         26.4610   25.3790    0.6660 N.am   75  THR75      -0.1951
     66  CA        27.0430   25.3030   -0.6740 C.3    75  THR75       0.1897
     67  C         28.2290   24.2740   -0.7430 C.2    75  THR75       0.2313
     68  O         28.3030   23.4540   -1.6490 O.2    75  THR75      -0.2863
     69  CB        27.5340   26.6960   -1.1600 C.3    75  THR75       0.1794
     70  OG1       26.3940   27.5890   -1.3160 O.3    75  THR75      -0.2208
     71  CG2       28.2720   26.5500   -2.4550 C.3    75  THR75       0.0378
     72  N         21.6880   29.0200   -2.3320 N.3   117  THR117     -0.1218
     73  CA        22.4920   29.6700   -3.3250 C.3   117  THR117      0.1862
     74  C         22.3370   28.9850   -4.6840 C.2   117  THR117      0.2287
     75  O         21.8240   27.8800   -4.7910 O.2   117  THR117     -0.2866
     76  CB        23.9830   29.6000   -3.0350 C.3   117  THR117      0.1770
     77  OG1       24.3710   28.2040   -3.0260 O.3   117  THR117     -0.2211
     78  CG2       24.2840   30.1940   -1.6200 C.3   117  THR117      0.0375
     79  N         23.9220   25.6000   -4.5200 N.3   120  THR120     -0.1218
     80  CA        23.1880   24.6070   -3.7370 C.3   120  THR120      0.1862
     81  C         22.0080   24.0620   -4.5100 C.2   120  THR120      0.2287
     82  O         21.7780   22.8450   -4.5990 O.2   120  THR120     -0.2866
     83  CB        22.7300   25.2090   -2.4170 C.3   120  THR120      0.1770
     84  OG1       23.9120   25.5230   -1.6670 O.3   120  THR120     -0.2211
     85  CG2       21.7790   24.2300   -1.6340 C.3   120  THR120      0.0375
     86  N         21.9080   36.2890    0.6150 N.3   148  VAL148     -0.1245
     87  CA        23.2210   36.3370    1.2940 C.3   148  VAL148      0.1561
     88  C         23.7090   37.7840    1.3100 C.2   148  VAL148      0.2260
     89  O         24.0230   38.3370    2.3830 O.2   148  VAL148     -0.2867
     90  CB        24.2380   35.3870    0.6350 C.3   148  VAL148      0.0252
     91  CG1       25.6690   35.6930    1.0880 C.3   148  VAL148      0.0019
     92  CG2       23.9140   33.9330    1.0970 C.3   148  VAL148      0.0019
     93  N         18.0400   26.5030    3.0790 N.3   183  GLY183     -0.1210
     94  CA        19.2350   25.7910    2.6790 C.3   183  GLY183      0.1956
     95  C         20.4640   26.6370    2.4450 C.2   183  GLY183      0.2612
     96  O         21.1710   26.4660    1.4730 O.2   183  GLY183     -0.2717
     97  N         20.6860   27.5130    3.4110 N.am  184  CYS184     -0.1956
     98  CA        21.8370   28.4320    3.3590 C.3   184  CYS184      0.1843
     99  C         22.1150   28.9320    4.7790 C.2   184  CYS184      0.2626
    100  O         21.2140   29.1890    5.5160 O.2   184  CYS184     -0.2714
    101  CB        21.4430   29.5910    2.4610 C.3   184  CYS184      0.0997
    102  SG        22.7620   30.8400    2.3290 S.3   184  CYS184     -0.0797
    103  N         23.3940   29.1240    5.1190 N.am  185  THR185     -0.1936
    104  CA        23.7340   29.5350    6.4680 C.3   185  THR185      0.2028
    105  C         23.1370   30.8670    6.9010 C.2   185  THR185      0.2642
    106  O         22.8730   31.1060    8.0700 O.2   185  THR185     -0.2714
    107  CB        25.2840   29.7040    6.6090 C.3   185  THR185      0.1808
    108  OG1       25.7630   30.4980    5.5140 O.3   185  THR185     -0.2208
    109  CG2       26.0300   28.2990    6.6130 C.3   185  THR185      0.0379
    110  N         22.9950   31.7420    5.9270 N.am  186  HIS186     -0.1973
    111  CA        22.5770   33.1020    6.2540 C.3   186  HIS186      0.1656
    112  C         21.1160   33.2670    6.4800 C.2   186  HIS186      0.2291
    113  O         20.7030   34.2250    7.1120 O.2   186  HIS186     -0.2864
    114  CB        23.0010   34.0180    5.0940 C.3   186  HIS186      0.0771
    115  CG        24.4710   34.2540    4.9980 C.ar  186  HIS186      0.0820
    116  ND1       25.4130   33.2420    4.9380 N.ar  186  HIS186     -0.2267
    117  CD2       25.1670   35.4240    4.9430 C.ar  186  HIS186      0.1154
    118  CE1       26.6210   33.7760    4.8420 C.ar  186  HIS186      0.1986
    119  NE2       26.5010   35.1010    4.8460 N.ar  186  HIS186     -0.2212
@<TRIPOS>BOND
     1    47    46    2
     2    46    45    1
     3    48    45    1
     4    48    49    1
     5    45    44    1
     6    49    50    1
     7    43    42    2
     8    44    42   am
     9    44    50    1
    10    42    41    1
    11    75    74    2
    12    74    73    1
    13    82    81    2
    14    79    80    1
    15    81    80    1
    16    31    30    2
    17    80    83    1
    18    41    40    1
    19    30    40   am
    20    30    29    1
    21    73    76    1
    22    73    72    1
    23    24    23    2
    24    76    77    1
    25    76    78    1
    26    26    27    1
    27    26    25    1
    28    29    28    1
    29    29    32    1
    30    71    69    1
    31    83    84    1
    32    83    85    1
    33    27    21    1
    34    23    28   am
    35    23    22    1
    36    68    67    2
    37    25    22    1
    38    32    33    1
    39    70    69    1
    40    21    22    1
    41    21    17   am
    42    69    66    1
    43    33    35   ar
    44    33    34   ar
    45    35    37   ar
    46    67    66    1
    47    66    65    1
    48    18    17    2
    49    17    16    1
    50    34    36   ar
    51    37    38   ar
    52    60    59    2
    53    36    38   ar
    54    38    39    1
    55    15    16    1
    56    86    87    1
    57    16    19    1
    58    90    91    1
    59    90    92    1
    60    90    87    1
    61    65    59   am
    62    59    58    1
    63    87    88    1
    64    88    89    2
    65    96    95    2
    66    19    20    1
    67    56    55    1
    68   102   101    1
    69    13    14    1
    70    13    10    1
    71    61    58    1
    72    61    62    1
    73    95    94    1
    74    95    97   am
    75   101    98    1
    76    58    57    1
    77    94    93    1
    78    98    97    1
    79    98    99    1
    80    57    53   am
    81    54    53    2
    82    10    11    1
    83    10     9    1
    84    53    52    1
    85    62    63    2
    86    62    64   am
    87    12    11    2
    88    55    52    1
    89     9     3   am
    90    52    51    1
    91    99   103   am
    92    99   100    2
    93   118   119   ar
    94   118   116   ar
    95   119   117   ar
    96   116   115   ar
    97   117   115   ar
    98   115   114    1
    99   114   111    1
   100   103   104    1
   101     3     4    2
   102     3     2    1
   103   108   107    1
   104   110   111    1
   105   110   105   am
   106     7     6   ar
   107   111   112    1
   108     2     1    1
   109     2     5    1
   110   104   107    1
   111   104   105    1
   112   112   113    2
   113   107   109    1
   114     6     8   ar
   115     6     5    1
   116   105   106    2
