@<TRIPOS>MOLECULE
tmp/1zvrA00.pdb
 190 181 0 0 0
SMALL
GASTEIGER

@<TRIPOS>ATOM
      1  N         33.4830   47.2540   81.7760 N.3   192  ARG192     -0.1245
      2  CA        33.6140   46.1610   80.8110 C.3   192  ARG192      0.1563
      3  C         34.3970   44.9870   81.3880 C.2   192  ARG192      0.2260
      4  O         34.9470   44.1560   80.6500 O.2   192  ARG192     -0.2867
      5  CB        34.2900   46.6640   79.5290 C.3   192  ARG192      0.0307
      6  CG        33.5290   47.7850   78.8420 C.3   192  ARG192      0.0489
      7  CD        34.3550   48.4420   77.7410 C.3   192  ARG192      0.2205
      8  NE        33.6810   49.6220   77.2060 N.pl3 192  ARG192     -0.0865
      9  CZ        32.7100   49.5870   76.3000 C.cat 192  ARG192      0.5346
     10  NH1       32.2980   48.4230   75.8100 N.pl3 192  ARG192      0.1354
     11  NH2       32.1390   50.7190   75.8980 N.pl3 192  ARG192      0.1354
     12  N         38.2590   52.1710   83.9660 N.3   214  GLN214     -0.1245
     13  CA        37.8450   53.0010   85.0810 C.3   214  GLN214      0.1566
     14  C         36.9660   52.2740   86.0920 C.2   214  GLN214      0.2260
     15  O         36.3130   51.2800   85.7630 O.2   214  GLN214     -0.2867
     16  CB        37.1030   54.2230   84.5650 C.3   214  GLN214      0.0367
     17  CG        35.7720   53.9110   83.9250 C.3   214  GLN214      0.0905
     18  CD        35.1240   55.1530   83.3590 C.2   214  GLN214      0.2608
     19  OE1       35.1410   56.2040   83.9950 O.2   214  GLN214     -0.2717
     20  NE2       34.5470   55.0420   82.1630 N.am  214  GLN214     -0.0878
     21  N         33.7520   51.7540   88.3750 N.3   216  MET216     -0.1245
     22  CA        32.3520   52.1380   88.2700 C.3   216  MET216      0.1570
     23  C         31.9050   52.7290   89.5960 C.2   216  MET216      0.2261
     24  O         31.1620   52.1090   90.3630 O.2   216  MET216     -0.2867
     25  CB        31.4950   50.9260   87.8940 C.3   216  MET216      0.0387
     26  CG        31.8700   50.3200   86.5490 C.3   216  MET216      0.0595
     27  SD        31.9240   51.5590   85.2360 S.3   216  MET216     -0.1393
     28  CE        30.2090   51.5590   84.6800 C.3   216  MET216      0.0692
     29  N         43.3040   60.3940   81.5520 N.3   250  ARG250     -0.1245
     30  CA        42.3680   61.4370   81.3200 C.3   250  ARG250      0.1563
     31  C         42.5980   62.7740   81.9940 C.2   250  ARG250      0.2260
     32  O         43.1320   63.0070   83.0360 O.2   250  ARG250     -0.2867
     33  CB        40.9360   60.9690   81.6550 C.3   250  ARG250      0.0307
     34  CG        40.3580   59.9160   80.7450 C.3   250  ARG250      0.0489
     35  CD        39.0330   59.3980   81.3190 C.3   250  ARG250      0.2205
     36  NE        39.2230   58.9820   82.7100 N.pl3 250  ARG250     -0.0865
     37  CZ        38.3330   58.3510   83.4550 C.cat 250  ARG250      0.5346
     38  NH1       37.1340   58.0450   82.9910 N.pl3 250  ARG250      0.1354
     39  NH2       38.6520   58.0050   84.7030 N.pl3 250  ARG250      0.1354
     40  N         37.3600   65.3200   82.3740 N.3   254  ASN254     -0.1240
     41  CA        36.8050   64.1650   81.6820 C.3   254  ASN254      0.1653
     42  C         36.5230   63.0620   82.6850 C.2   254  ASN254      0.2266
     43  O         35.5070   62.3830   82.6230 O.2   254  ASN254     -0.2867
     44  CB        37.7570   63.6650   80.6120 C.3   254  ASN254      0.1155
     45  CG        37.8860   64.6410   79.4490 C.2   254  ASN254      0.2627
     46  OD1       37.3100   65.7190   79.4790 O.2   254  ASN254     -0.2716
     47  ND2       38.6270   64.2580   78.4170 N.am  254  ASN254     -0.0877
     48  N         33.4250   63.9620   84.3660 N.3   257  ALA257     -0.1231
     49  CA        32.2980   63.8460   83.4560 C.3   257  ALA257      0.1694
     50  C         31.8390   62.3990   83.4100 C.2   257  ALA257      0.2592
     51  O         30.6590   62.0950   83.4000 O.2   257  ALA257     -0.2718
     52  CB        32.6850   64.3400   82.0690 C.3   257  ALA257      0.0304
     53  N         32.8480   61.5020   83.4230 N.am  258  ASN258     -0.1974
     54  CA        32.6120   60.0650   83.3710 C.3   258  ASN258      0.1688
     55  C         31.9300   59.5880   84.6430 C.2   258  ASN258      0.2292
     56  O         31.0620   58.7100   84.6360 O.2   258  ASN258     -0.2864
     57  CB        33.9520   59.3190   83.2070 C.3   258  ASN258      0.1181
     58  CG        34.3290   59.1080   81.7690 C.2   258  ASN258      0.2629
     59  OD1       33.9800   58.0970   81.1960 O.2   258  ASN258     -0.2716
     60  ND2       35.0560   60.0540   81.1810 N.am  258  ASN258     -0.0877
     61  N         28.2410   59.9910   84.6510 N.3   261  LYS261     -0.1231
     62  CA        27.8070   58.9130   83.8120 C.3   261  LYS261      0.1693
     63  C         27.7870   57.5520   84.4420 C.2   261  LYS261      0.2593
     64  O         26.9700   56.6710   84.1210 O.2   261  LYS261     -0.2718
     65  CB        28.3650   58.9370   82.4100 C.3   261  LYS261      0.0285
     66  CG        27.3290   58.9090   81.3240 C.3   261  LYS261      0.0035
     67  CD        26.7500   57.5630   81.0070 C.3   261  LYS261      0.0206
     68  CE        25.7660   57.5740   79.8610 C.3   261  LYS261      0.1093
     69  NZ        26.2950   58.1070   78.5860 N.3   261  LYS261     -0.1314
     70  N         28.7120   57.3160   85.3800 N.am  262  GLY262     -0.1942
     71  CA        28.6840   56.0250   86.0920 C.3   262  GLY262      0.2014
     72  C         30.0280   55.4750   86.3420 C.2   262  GLY262      0.2639
     73  O         30.2400   54.4340   86.9730 O.2   262  GLY262     -0.2714
     74  N         30.9590   56.1370   85.6930 N.am  263  GLY263     -0.1954
     75  CA        32.3300   55.6780   85.7640 C.3   263  GLY263      0.1869
     76  C         32.9610   56.4650   86.8880 C.2   263  GLY263      0.2309
     77  O         32.3950   56.5830   87.9850 O.2   263  GLY263     -0.2863
     78  N         40.2990   62.4200   74.5760 N.3   283  ASN283     -0.1225
     79  CA        39.6720   61.2410   73.9850 C.3   283  ASN283      0.1785
     80  C         39.8560   61.0620   72.4880 C.2   283  ASN283      0.2597
     81  O         40.4620   61.9020   71.8080 O.2   283  ASN283     -0.2718
     82  CB        38.1800   61.1880   74.3430 C.3   283  ASN283      0.1169
     83  CG        37.3650   62.2860   73.6770 C.2   283  ASN283      0.2627
     84  OD1       37.6560   62.7090   72.5550 O.2   283  ASN283     -0.2716
     85  ND2       36.3150   62.7320   74.3600 N.am  283  ASN283     -0.0877
     86  N         39.3180   59.9550   71.9820 N.am  284  ILE284     -0.1966
     87  CA        39.4420   59.6030   70.5750 C.3   284  ILE284      0.1727
     88  C         38.9200   60.6600   69.6160 C.2   284  ILE284      0.2616
     89  O         39.4370   60.8080   68.5060 O.2   284  ILE284     -0.2715
     90  CB        38.7190   58.2690   70.2660 C.3   284  ILE284      0.0290
     91  CG1       37.2400   58.3650   70.6540 C.3   284  ILE284      0.0022
     92  CG2       39.3930   57.1340   71.0070 C.3   284  ILE284      0.0023
     93  CD1       36.4110   57.1720   70.1680 C.3   284  ILE284      0.0001
     94  N         37.9040   61.4010   70.0450 N.am  285  HIS285     -0.1973
     95  CA        37.3170   62.4250   69.1970 C.3   285  HIS285      0.1656
     96  C         38.2550   63.6060   69.0110 C.2   285  HIS285      0.2291
     97  O         38.4150   64.1230   67.9010 O.2   285  HIS285     -0.2864
     98  CB        35.9760   62.8410   69.7980 C.3   285  HIS285      0.0771
     99  CG        35.0660   61.6770   70.0220 C.ar  285  HIS285      0.0820
    100  ND1       34.7050   60.8240   69.0030 N.ar  285  HIS285     -0.2267
    101  CD2       34.5420   61.1500   71.1540 C.ar  285  HIS285      0.1154
    102  CE1       34.0040   59.8190   69.4970 C.ar  285  HIS285      0.1986
    103  NE2       33.8920   59.9920   70.8020 N.ar  285  HIS285     -0.2212
    104  N         42.2370   54.3980   81.8890 N.3   345  SER345     -0.1202
    105  CA        41.6150   55.5250   81.2290 C.3   345  SER345      0.2020
    106  C         40.1520   55.6280   81.4650 C.2   345  SER345      0.2619
    107  O         39.7070   55.4500   82.6340 O.2   345  SER345     -0.2717
    108  CB        42.1640   55.8260   79.8730 C.3   345  SER345      0.2103
    109  OG        42.1820   54.6660   79.0430 O.3   345  SER345     -0.2182
    110  N         39.2900   55.4270   80.4550 N.am  346  SER346     -0.1937
    111  CA        37.8720   55.1610   80.6550 C.3   346  SER346      0.2055
    112  C         37.6300   53.6570   80.4870 C.2   346  SER346      0.2643
    113  O         37.3260   52.9560   81.4490 O.2   346  SER346     -0.2714
    114  CB        37.0050   55.9550   79.6880 C.3   346  SER346      0.2130
    115  OG        36.8820   57.3100   80.0930 O.3   346  SER346     -0.2179
    116  N         37.8500   53.2110   79.1990 N.am  347  ASP347     -0.1957
    117  CA        37.6770   51.7990   78.8650 C.3   347  ASP347      0.1840
    118  C         38.9520   50.9820   79.0370 C.2   347  ASP347      0.2623
    119  O         38.9030   49.7510   79.0900 O.2   347  ASP347     -0.2715
    120  CB        37.1770   51.6480   77.4300 C.3   347  ASP347      0.1450
    121  CG        35.8260   52.2820   77.2220 C.2   347  ASP347      0.3671
    122  OD1       34.9030   51.9900   78.0100 O.co2 347  ASP347     -0.2456
    123  OD2       35.6840   53.0700   76.2710 O.co2 347  ASP347     -0.2456
    124  N         40.1030   51.6470   79.0830 N.am  348  GLY348     -0.1940
    125  CA        41.3660   50.9890   79.2510 C.3   348  GLY348      0.2014
    126  C         42.0100   50.3220   78.0820 C.2   348  GLY348      0.2639
    127  O         43.0020   49.5910   78.2930 O.2   348  GLY348     -0.2714
    128  N         41.5110   50.4560   76.8740 N.am  349  TRP349     -0.1959
    129  CA        42.0510   49.9050   75.6520 C.3   349  TRP349      0.1771
    130  C         42.9710   50.8230   74.8770 C.2   349  TRP349      0.2620
    131  O         43.8660   50.3900   74.1270 O.2   349  TRP349     -0.2715
    132  CB        41.0660   49.1670   74.7850 C.3   349  TRP349      0.0590
    133  CG        39.7330   49.7740   74.5300 C.ar  349  TRP349      0.0006
    134  CD1       39.3780   51.0250   74.1600 C.ar  349  TRP349      0.0946
    135  CD2       38.4780   49.0670   74.7300 C.ar  349  TRP349      0.0152
    136  NE1       38.0010   51.1500   74.1080 N.ar  349  TRP349     -0.2442
    137  CE2       37.4300   49.9470   74.4550 C.ar  349  TRP349      0.0810
    138  CE3       38.1590   47.7480   75.0750 C.ar  349  TRP349      0.0012
    139  CZ2       36.0790   49.5820   74.5160 C.ar  349  TRP349      0.0191
    140  CZ3       36.8210   47.3830   75.1460 C.ar  349  TRP349      0.0001
    141  CH2       35.7960   48.2900   74.8630 C.ar  349  TRP349      0.0015
    142  N         42.5790   52.1030   74.7890 N.am  350  ASP350     -0.1961
    143  CA        43.1160   53.1320   73.9410 C.3   350  ASP350      0.1806
    144  C         44.3180   53.8700   74.4620 C.2   350  ASP350      0.2618
    145  O         45.4860   53.4330   74.3910 O.2   350  ASP350     -0.2715
    146  CB        42.0530   54.0820   73.3860 C.3   350  ASP350      0.1308
    147  CG        41.0180   53.3350   72.4710 C.3   350  ASP350      0.4282
    148  OD1       41.4120   53.2250   71.3230 O.2   350  ASP350     -0.2670
    149  OD2       39.8630   53.8840   72.6990 O.2   350  ASP350     -0.2670
    150  N         44.0640   54.9040   75.3550 N.am  351  ARG351     -0.1977
    151  CA        45.0880   55.6930   76.0000 C.3   351  ARG351      0.1597
    152  C         45.9310   54.8080   76.8930 C.2   351  ARG351      0.2287
    153  O         47.1620   54.8800   76.9320 O.2   351  ARG351     -0.2864
    154  CB        44.5420   56.8980   76.7440 C.3   351  ARG351      0.0334
    155  CG        43.9340   57.9700   75.8450 C.3   351  ARG351      0.0492
    156  CD        43.2080   59.0360   76.6740 C.3   351  ARG351      0.2205
    157  NE        41.9300   58.4470   77.1230 N.pl3 351  ARG351     -0.0865
    158  CZ        40.8360   59.0980   77.4610 C.cat 351  ARG351      0.5346
    159  NH1       40.7810   60.4150   77.4410 N.pl3 351  ARG351      0.1354
    160  NH2       39.7630   58.4080   77.8520 N.pl3 351  ARG351      0.1354
    161  N         40.5740   48.1050   69.9300 N.3   387  ARG387     -0.1245
    162  CA        39.6060   47.8680   68.8630 C.3   387  ARG387      0.1563
    163  C         40.0540   48.3430   67.4800 C.2   387  ARG387      0.2260
    164  O         39.4800   49.2740   66.9120 O.2   387  ARG387     -0.2867
    165  CB        38.2720   48.5190   69.2500 C.3   387  ARG387      0.0307
    166  CG        37.8270   48.1320   70.6660 C.3   387  ARG387      0.0489
    167  CD        36.3190   48.2080   70.8610 C.3   387  ARG387      0.2205
    168  NE        35.8050   49.5630   71.0300 N.pl3 387  ARG387     -0.0865
    169  CZ        34.5240   49.8430   71.2660 C.cat 387  ARG387      0.5346
    170  NH1       33.6310   48.8670   71.3620 N.pl3 387  ARG387      0.1354
    171  NH2       34.1310   51.0980   71.4010 N.pl3 387  ARG387      0.1354
    172  N         38.5430   51.2680   65.1320 N.3   391  ARG391     -0.1245
    173  CA        39.2970   52.5140   65.0840 C.3   391  ARG391      0.1563
    174  C         39.7940   52.8520   63.6730 C.2   391  ARG391      0.2260
    175  O         40.0530   54.0220   63.3590 O.2   391  ARG391     -0.2867
    176  CB        40.4760   52.4230   66.0530 C.3   391  ARG391      0.0307
    177  CG        40.0720   52.2730   67.5090 C.3   391  ARG391      0.0489
    178  CD        39.5870   53.6070   68.0690 C.3   391  ARG391      0.2205
    179  NE        39.1650   53.5010   69.4630 N.pl3 391  ARG391     -0.0865
    180  CZ        37.8970   53.4840   69.8620 C.cat 391  ARG391      0.5346
    181  NH1       36.9200   53.5730   68.9720 N.pl3 391  ARG391      0.1354
    182  NH2       37.6060   53.3550   71.1490 N.pl3 391  ARG391      0.1354
    183  N         33.7800   56.3320   65.7630 N.3   403  ASP403     -0.1239
    184  CA        34.6510   55.3690   66.4350 C.3   403  ASP403      0.1674
    185  C         36.0550   55.3900   65.8190 C.2   403  ASP403      0.2266
    186  O         36.9960   54.8190   66.3750 O.2   403  ASP403     -0.2867
    187  CB        34.1020   53.9370   66.3090 C.3   403  ASP403      0.1410
    188  CG        32.6650   53.7980   66.7930 C.2   403  ASP403      0.3668
    189  OD1       32.3970   54.0280   67.9930 O.co2 403  ASP403     -0.2456
    190  OD2       31.8000   53.4460   65.9570 O.co2 403  ASP403     -0.2456
@<TRIPOS>BOND
     1   175   174    2
     2   174   173    1
     3   173   172    1
     4   173   176    1
     5   183   184    1
     6   185   186    2
     7   185   184    1
     8   190   188   ar
     9   176   177    1
    10   187   184    1
    11   187   188    1
    12   188   189   ar
    13   164   163    2
    14   163   162    1
    15   177   178    1
    16    97    96    2
    17   178   179    1
    18    89    88    2
    19   162   165    1
    20   162   161    1
    21   181   180    1
    22   100   102   ar
    23   100    99   ar
    24    96    95    1
    25    95    98    1
    26    95    94    1
    27   165   166    1
    28   179   180    2
    29   102   103   ar
    30    88    94   am
    31    88    87    1
    32    98    99    1
    33   180   182    1
    34    99   101   ar
    35    93    91    1
    36    90    87    1
    37    90    91    1
    38    90    92    1
    39    87    86    1
    40   166   167    1
    41   103   101   ar
    42   167   168    1
    43   168   169    2
    44   169   170    1
    45   169   171    1
    46   148   147    1
    47    81    80    2
    48    86    80   am
    49   147   149    1
    50   147   146    1
    51    80    79    1
    52    84    83    2
    53   146   143    1
    54    83    82    1
    55    83    85   am
    56   143   144    1
    57   143   142    1
    58    79    82    1
    59    79    78    1
    60   136   134   ar
    61   136   137   ar
    62   131   130    2
    63   134   133   ar
    64   145   144    2
    65   137   139   ar
    66   137   135   ar
    67   144   150   am
    68   139   141   ar
    69   133   135   ar
    70   133   132    1
    71   135   138   ar
    72   132   129    1
    73   142   130   am
    74   141   140   ar
    75   130   129    1
    76   138   140   ar
    77   150   151    1
    78   129   128    1
    79    10     9    1
    80   155   156    1
    81   155   154    1
    82    11     9    1
    83   151   154    1
    84   151   152    1
    85   123   121   ar
    86     9     8    2
    87   156   157    1
    88   128   126   am
    89   152   153    2
    90   157   158    2
    91     8     7    1
    92   121   120    1
    93   121   122   ar
    94   120   117    1
    95   159   158    1
    96   158   160    1
    97     7     6    1
    98   126   127    2
    99   126   125    1
   100    47    45   am
   101    69    68    1
   102     6     5    1
   103   117   118    1
   104   117   116    1
   105   118   124   am
   106   118   119    2
   107   109   108    1
   108   124   125    1
   109   116   112   am
   110    45    46    2
   111    45    44    1
   112     5     2    1
   113   114   115    1
   114   114   111    1
   115    68    67    1
   116   108   105    1
   117   110   111    1
   118   110   106   am
   119   112   111    1
   120   112   113    2
   121    44    41    1
   122     4     3    2
   123    34    35    1
   124    34    33    1
   125     2     3    1
   126     2     1    1
   127    67    66    1
   128    60    58   am
   129    59    58    2
   130   105   106    1
   131   105   104    1
   132    35    36    1
   133    30    29    1
   134    30    33    1
   135    30    31    1
   136    66    65    1
   137   106   107    2
   138    41    40    1
   139    41    42    1
   140    58    57    1
   141    31    32    2
   142    52    49    1
   143    20    18   am
   144    65    62    1
   145    43    42    2
   146    36    37    2
   147    38    37    1
   148    57    54    1
   149    18    17    1
   150    18    19    2
   151    54    53    1
   152    54    55    1
   153    51    50    2
   154    50    53   am
   155    50    49    1
   156    37    39    1
   157    49    48    1
   158    62    63    1
   159    62    61    1
   160    17    16    1
   161    12    13    1
   162    64    63    2
   163    63    70   am
   164    16    13    1
   165    56    55    2
   166    28    27    1
   167    13    14    1
   168    27    26    1
   169    70    71    1
   170    74    75    1
   171    74    72   am
   172    15    14    2
   173    75    76    1
   174    71    72    1
   175    72    73    2
   176    26    25    1
   177    76    77    2
   178    25    22    1
   179    22    21    1
   180    22    23    1
   181    23    24    2
