@<TRIPOS>MOLECULE
tmp/1zw1B01.pdb
 159 151 0 0 0
SMALL
GASTEIGER

@<TRIPOS>ATOM
      1  N         14.6390  103.8920   35.5070 N.3   119  SER119     -0.1202
      2  CA        14.0810  102.7520   34.7980 C.3   119  SER119      0.2020
      3  C         12.8520  103.1660   34.0170 C.2   119  SER119      0.2619
      4  O         11.7390  102.7130   34.2850 O.2   119  SER119     -0.2717
      5  CB        13.7220  101.6520   35.7870 C.3   119  SER119      0.2103
      6  OG        13.7890  100.3960   35.1400 O.3   119  SER119     -0.2182
      7  N         13.0790  104.0250   33.0300 N.am  120  LEU120     -0.1965
      8  CA        12.0050  104.5560   32.2040 C.3   120  LEU120      0.1728
      9  C         12.4550  104.8820   30.7850 C.2   120  LEU120      0.2616
     10  O         13.6280  105.1680   30.5270 O.2   120  LEU120     -0.2715
     11  CB        11.4500  105.8230   32.8540 C.3   120  LEU120      0.0311
     12  CG        12.4920  106.9350   32.9960 C.3   120  LEU120      0.0022
     13  CD1       12.4440  107.8440   31.7660 C.3   120  LEU120      0.0001
     14  CD2       12.2240  107.7140   34.2700 C.3   120  LEU120      0.0001
     15  N         11.4940  104.8360   29.8730 N.am  121  ALA121     -0.1963
     16  CA        11.7250  105.1310   28.4760 C.3   121  ALA121      0.1728
     17  C         10.3600  105.3330   27.8470 C.2   121  ALA121      0.2616
     18  O          9.3440  104.8620   28.3680 O.2   121  ALA121     -0.2715
     19  CB        12.4490  103.9940   27.8120 C.3   121  ALA121      0.0334
     20  N         10.3350  106.0600   26.7390 N.am  122  ASN122     -0.1958
     21  CA         9.1030  106.3360   26.0260 C.3   122  ASN122      0.1819
     22  C          9.4830  106.7800   24.6390 C.2   122  ASN122      0.2621
     23  O         10.5070  107.4220   24.4500 O.2   122  ASN122     -0.2715
     24  CB         8.3240  107.4550   26.7090 C.3   122  ASN122      0.1195
     25  CG         6.9420  107.0200   27.1330 C.2   122  ASN122      0.2630
     26  OD1        6.4130  106.0290   26.6220 O.2   122  ASN122     -0.2716
     27  ND2        6.3400  107.7620   28.0650 N.am  122  ASN122     -0.0877
     28  N          8.6600  106.4310   23.6660 N.am  123  ALA123     -0.1977
     29  CA         8.9100  106.8120   22.2880 C.3   123  ALA123      0.1597
     30  C          7.5940  106.6390   21.5680 C.2   123  ALA123      0.2287
     31  O          7.2090  105.5140   21.2380 O.2   123  ALA123     -0.2864
     32  CB         9.9700  105.9180   21.6760 C.3   123  ALA123      0.0319
     33  N          7.6180  104.1640   18.6140 N.3   126  VAL126     -0.1245
     34  CA         8.3870  102.9490   18.7810 C.3   126  VAL126      0.1561
     35  C          7.9980  101.9520   17.6840 C.2   126  VAL126      0.2260
     36  O          8.8200  101.1520   17.2290 O.2   126  VAL126     -0.2867
     37  CB         8.1270  102.3480   20.1890 C.3   126  VAL126      0.0252
     38  CG1        6.6650  101.9670   20.3240 C.3   126  VAL126      0.0019
     39  CG2        9.0290  101.1560   20.4320 C.3   126  VAL126      0.0019
     40  N         19.1760   99.7840   29.4590 N.3   170  THR170     -0.1203
     41  CA        19.3620  100.0020   28.0260 C.3   170  THR170      0.1994
     42  C         19.1690   98.6940   27.2610 C.2   170  THR170      0.2617
     43  O         19.0150   97.6420   27.8590 O.2   170  THR170     -0.2717
     44  CB        20.7820  100.5630   27.7320 C.3   170  THR170      0.1784
     45  OG1       20.9000  100.8950   26.3400 O.3   170  THR170     -0.2211
     46  CG2       21.8560   99.5420   28.1120 C.3   170  THR170      0.0376
     47  N         19.1640   98.7610   25.9380 N.am  171  TYR171     -0.1975
     48  CA        19.0000   97.5650   25.1290 C.3   171  TYR171      0.1639
     49  C         20.0220   97.5320   23.9870 C.2   171  TYR171      0.2290
     50  O         20.2630   98.5350   23.3040 O.2   171  TYR171     -0.2864
     51  CB        17.5790   97.5010   24.5620 C.3   171  TYR171      0.0560
     52  CG        17.2290   96.2040   23.8540 C.ar  171  TYR171     -0.0198
     53  CD1       17.3750   94.9750   24.4970 C.ar  171  TYR171     -0.0009
     54  CD2       16.7060   96.2150   22.5620 C.ar  171  TYR171     -0.0009
     55  CE1       17.0110   93.7940   23.8780 C.ar  171  TYR171      0.0417
     56  CE2       16.3310   95.0320   21.9250 C.ar  171  TYR171      0.0417
     57  CZ        16.4880   93.8220   22.5870 C.ar  171  TYR171      0.1957
     58  OH        16.1370   92.6360   21.9620 O.3   171  TYR171     -0.2866
     59  N         12.7270   97.7910   16.6510 N.3   181  TYR181     -0.1241
     60  CA        12.9600   98.6660   17.7910 C.3   181  TYR181      0.1605
     61  C         13.1420  100.0390   17.1710 C.2   181  TYR181      0.2264
     62  O         14.2700  100.4730   16.9260 O.2   181  TYR181     -0.2867
     63  CB        14.2270   98.2450   18.5210 C.3   181  TYR181      0.0534
     64  CG        14.4210   98.8540   19.8860 C.ar  181  TYR181     -0.0201
     65  CD1       13.5740   98.5280   20.9490 C.ar  181  TYR181     -0.0009
     66  CD2       15.5040   99.6980   20.1400 C.ar  181  TYR181     -0.0009
     67  CE1       13.8130   99.0270   22.2390 C.ar  181  TYR181      0.0417
     68  CE2       15.7500  100.1970   21.4190 C.ar  181  TYR181      0.0417
     69  CZ        14.9030   99.8570   22.4580 C.ar  181  TYR181      0.1957
     70  OH        15.1650  100.3510   23.7030 O.3   181  TYR181     -0.2866
     71  N         14.1500  104.8370   19.4500 N.3   185  MET185     -0.1245
     72  CA        14.6040  104.1330   20.6470 C.3   185  MET185      0.1570
     73  C         16.0630  103.6890   20.6030 C.2   185  MET185      0.2261
     74  O         16.8010  103.8960   21.5610 O.2   185  MET185     -0.2867
     75  CB        13.7170  102.9250   20.9190 C.3   185  MET185      0.0387
     76  CG        12.6890  103.1970   21.9860 C.3   185  MET185      0.0595
     77  SD        13.4480  103.8420   23.4950 S.3   185  MET185     -0.1393
     78  CE        12.1000  103.5400   24.6130 C.3   185  MET185      0.0692
     79  N         18.9390  104.8660   23.2580 N.3   189  LYS189     -0.1245
     80  CA        19.8020  104.0010   24.0520 C.3   189  LYS189      0.1561
     81  C         21.2600  104.1970   23.6630 C.2   189  LYS189      0.2260
     82  O         22.1590  103.9680   24.4700 O.2   189  LYS189     -0.2867
     83  CB        19.4020  102.5410   23.8740 C.3   189  LYS189      0.0271
     84  CG        18.0170  102.2150   24.3800 C.3   189  LYS189      0.0035
     85  CD        17.9220  102.4950   25.8610 C.3   189  LYS189      0.0206
     86  CE        16.5770  102.1000   26.4160 C.3   189  LYS189      0.1093
     87  NZ        16.5470  102.2730   27.8940 N.3   189  LYS189     -0.1314
     88  N         18.2560   91.7590   28.9180 N.3   217  GLY217     -0.1210
     89  CA        17.7150   90.9410   27.8450 C.3   217  GLY217      0.1940
     90  C         16.2230   91.2110   27.7740 C.2   217  GLY217      0.2454
     91  O         15.7740   92.1940   28.3480 O.2   217  GLY217     -0.2732
     92  N         15.4160   90.3690   27.1090 N.am  218  PRO218     -0.2717
     93  CA        13.9810   90.6630   27.0580 C.3   218  PRO218      0.1535
     94  C         13.1240   90.1650   28.2430 C.2   218  PRO218      0.2598
     95  O         13.2920   89.0580   28.7590 O.2   218  PRO218     -0.2715
     96  CB        13.5700   90.0490   25.7230 C.3   218  PRO218      0.0310
     97  CG        14.3950   88.8000   25.6840 C.3   218  PRO218      0.0237
     98  CD        15.7610   89.2570   26.2010 C.3   218  PRO218      0.0939
     99  N         12.1940   91.0170   28.6520 N.am  219  LEU219     -0.1978
    100  CA        11.2670   90.7600   29.7500 C.3   219  LEU219      0.1596
    101  C          9.8990   91.2710   29.2970 C.2   219  LEU219      0.2287
    102  O          9.8130   92.3520   28.7260 O.2   219  LEU219     -0.2864
    103  CB        11.7060   91.5360   30.9930 C.3   219  LEU219      0.0297
    104  CG        10.7060   91.4250   32.1330 C.3   219  LEU219      0.0022
    105  CD1       10.7420   89.9930   32.6230 C.3   219  LEU219      0.0001
    106  CD2       11.0190   92.4000   33.2470 C.3   219  LEU219      0.0001
    107  N          7.2410   93.3090   29.7260 N.3   221  SER221     -0.1217
    108  CA         6.7570   94.4170   30.5420 C.3   221  SER221      0.1889
    109  C          5.6190   95.1390   29.8410 C.2   221  SER221      0.2288
    110  O          5.3790   94.9430   28.6450 O.2   221  SER221     -0.2866
    111  CB         7.8850   95.4140   30.8360 C.3   221  SER221      0.2089
    112  OG         8.3700   96.0140   29.6500 O.3   221  SER221     -0.2183
    113  N          5.4200   98.0690   28.9040 N.3   223  ALA223     -0.1231
    114  CA         6.0770   98.7580   27.8020 C.3   223  ALA223      0.1694
    115  C          6.5450   97.9090   26.6180 C.2   223  ALA223      0.2591
    116  O          6.5740   98.3950   25.4870 O.2   223  ALA223     -0.2718
    117  CB         7.2490   99.5460   28.3480 C.3   223  ALA223      0.0304
    118  N          6.9240   96.6610   26.8770 N.am  224  ALA224     -0.1980
    119  CA         7.4090   95.7720   25.8230 C.3   224  ALA224      0.1597
    120  C          6.3080   95.2900   24.8730 C.2   224  ALA224      0.2287
    121  O          6.5750   94.9040   23.7300 O.2   224  ALA224     -0.2864
    122  CB         8.1230   94.5770   26.4440 C.3   224  ALA224      0.0319
    123  N          3.7530   97.2600   24.2010 N.3   226  ALA226     -0.1231
    124  CA         3.4420   98.4880   23.4850 C.3   226  ALA226      0.1694
    125  C          4.0880   98.3560   22.1110 C.2   226  ALA226      0.2591
    126  O          3.5110   98.7530   21.0970 O.2   226  ALA226     -0.2718
    127  CB         4.0210   99.6880   24.2280 C.3   226  ALA226      0.0304
    128  N          5.2930   97.7890   22.0970 N.am  227  ILE227     -0.1980
    129  CA         6.0340   97.5700   20.8650 C.3   227  ILE227      0.1595
    130  C          5.2340   96.5790   20.0350 C.2   227  ILE227      0.2287
    131  O          5.0960   95.4130   20.4040 O.2   227  ILE227     -0.2864
    132  CB         7.4270   96.9490   21.1280 C.3   227  ILE227      0.0276
    133  CG1        8.1850   97.7590   22.1710 C.3   227  ILE227      0.0022
    134  CG2        8.2360   96.9250   19.8440 C.3   227  ILE227      0.0022
    135  CD1        9.5570   97.2050   22.4760 C.3   227  ILE227      0.0001
    136  N          6.5370   91.8080   19.3240 N.3   232  PHE232     -0.1227
    137  CA         7.9850   91.8950   19.2580 C.3   232  PHE232      0.1736
    138  C          8.6100   91.2390   20.4820 C.2   232  PHE232      0.2595
    139  O          9.5270   90.4360   20.3720 O.2   232  PHE232     -0.2718
    140  CB         8.4110   93.3680   19.1750 C.3   232  PHE232      0.0547
    141  CG         9.8720   93.5860   19.4070 C.ar  232  PHE232     -0.0202
    142  CD1       10.8060   93.1740   18.4710 C.ar  232  PHE232     -0.0042
    143  CD2       10.3200   94.1530   20.6000 C.ar  232  PHE232     -0.0042
    144  CE1       12.1650   93.3170   18.7220 C.ar  232  PHE232     -0.0003
    145  CE2       11.6730   94.2990   20.8610 C.ar  232  PHE232     -0.0003
    146  CZ        12.5970   93.8810   19.9230 C.ar  232  PHE232     -0.0000
    147  N          8.0920   91.5730   21.6520 N.am  233  ILE233     -0.1980
    148  CA         8.6290   91.0380   22.8890 C.3   233  ILE233      0.1595
    149  C          8.5790   89.5130   23.0220 C.2   233  ILE233      0.2287
    150  O          9.4390   88.9200   23.6580 O.2   233  ILE233     -0.2864
    151  CB         7.9220   91.6950   24.1030 C.3   233  ILE233      0.0276
    152  CG1        8.6220   91.2810   25.3960 C.3   233  ILE233      0.0022
    153  CG2        6.4430   91.3390   24.1100 C.3   233  ILE233      0.0022
    154  CD1       10.0750   91.7180   25.4510 C.3   233  ILE233      0.0001
    155  N         11.3980   88.0440   20.8280 N.3   236  ALA236     -0.1245
    156  CA        12.6530   88.3150   21.5270 C.3   236  ALA236      0.1562
    157  C         12.9190   87.3440   22.6940 C.2   236  ALA236      0.2260
    158  O         14.0440   86.8660   22.8750 O.2   236  ALA236     -0.2867
    159  CB        12.6470   89.7650   22.0380 C.3   236  ALA236      0.0290
@<TRIPOS>BOND
     1    59    60    1
     2    62    61    2
     3    61    60    1
     4    36    35    2
     5    35    34    1
     6    60    63    1
     7   142   144   ar
     8   142   141   ar
     9    63    64    1
    10    33    34    1
    11   144   146   ar
    12    34    37    1
    13   140   137    1
    14   140   141    1
    15   137   136    1
    16   137   138    1
    17   141   143   ar
    18    71    72    1
    19   134   132    1
    20    64    66   ar
    21    64    65   ar
    22   146   145   ar
    23   130   131    2
    24   130   129    1
    25    66    68   ar
    26    37    38    1
    27    37    39    1
    28   139   138    2
    29   138   147   am
    30   143   145   ar
    31    73    72    1
    32    73    74    2
    33    72    75    1
    34   155   156    1
    35   129   132    1
    36   129   128    1
    37    75    76    1
    38    65    67   ar
    39   126   125    2
    40   132   133    1
    41    31    30    2
    42    68    69   ar
    43   156   159    1
    44   156   157    1
    45    30    29    1
    46   147   148    1
    47    32    29    1
    48    56    54   ar
    49    56    57   ar
    50    58    57    1
    51    76    77    1
    52   128   125   am
    53   125   124    1
    54   133   135    1
    55    67    69   ar
    56    29    28    1
    57    69    70    1
    58    54    52   ar
    59    57    55   ar
    60   157   158    2
    61   148   149    1
    62   148   151    1
    63   149   150    2
    64    79    80    1
    65    50    49    2
    66   124   123    1
    67   124   127    1
    68    77    78    1
    69    81    80    1
    70    81    82    2
    71    28    22   am
    72   121   120    2
    73    52    53   ar
    74    52    51    1
    75    83    80    1
    76    83    84    1
    77    55    53   ar
    78    49    48    1
    79   151   153    1
    80   151   152    1
    81    84    85    1
    82    23    22    2
    83    51    48    1
    84    22    21    1
    85   120   119    1
    86    48    47    1
    87   152   154    1
    88   116   115    2
    89    97    96    1
    90    97    98    1
    91    96    93    1
    92   119   122    1
    93   119   118    1
    94    85    86    1
    95    47    42   am
    96    21    24    1
    97    21    20    1
    98    98    92    1
    99    45    44    1
   100    86    87    1
   101   115   118   am
   102   115   114    1
   103    26    25    2
   104    24    25    1
   105    20    17   am
   106    93    92    1
   107    93    94    1
   108    92    90   am
   109    25    27   am
   110    42    43    2
   111    42    41    1
   112    44    41    1
   113    44    46    1
   114    90    89    1
   115    90    91    2
   116   114   117    1
   117   114   113    1
   118    19    16    1
   119    89    88    1
   120    17    18    2
   121    17    16    1
   122    41    40    1
   123    94    99   am
   124    94    95    2
   125    16    15    1
   126   110   109    2
   127    99   100    1
   128   102   101    2
   129   101   100    1
   130   112   111    1
   131   107   108    1
   132   100   103    1
   133   109   108    1
   134    15     9   am
   135    10     9    2
   136   108   111    1
   137     9     8    1
   138   103   104    1
   139    13    12    1
   140   104   105    1
   141   104   106    1
   142     8    11    1
   143     8     7    1
   144    11    12    1
   145    12    14    1
   146     7     3   am
   147     3     4    2
   148     3     2    1
   149     2     1    1
   150     2     5    1
   151     6     5    1
