@<TRIPOS>MOLECULE
tmp/1zw9A00.pdb
 139 131 0 0 0
SMALL
GASTEIGER

@<TRIPOS>ATOM
      1  N         53.6630   25.8920    0.1480 N.3    33  LEU33      -0.1245
      2  CA        54.7160   26.7700   -0.3670 C.3    33  LEU33       0.1561
      3  C         55.2970   26.2490   -1.6780 C.2    33  LEU33       0.2260
      4  O         55.6190   27.0330   -2.5710 O.2    33  LEU33      -0.2867
      5  CB        55.8190   26.9460    0.6710 C.3    33  LEU33       0.0270
      6  CG        55.3230   27.4420    2.0300 C.3    33  LEU33       0.0019
      7  CD1       56.5350   27.7340    2.9260 C.3    33  LEU33       0.0001
      8  CD2       54.4340   28.6890    1.8410 C.3    33  LEU33       0.0001
      9  N         52.9130   27.1960   -4.3310 N.3    36  ASN36      -0.1225
     10  CA        53.0530   28.6100   -4.6880 C.3    36  ASN36       0.1785
     11  C         54.2860   28.8210   -5.5400 C.2    36  ASN36       0.2597
     12  O         54.2910   29.6560   -6.4410 O.2    36  ASN36      -0.2718
     13  CB        53.1770   29.4890   -3.4390 C.3    36  ASN36       0.1169
     14  CG        51.8660   29.6510   -2.7110 C.2    36  ASN36       0.2627
     15  OD1       50.8170   29.2470   -3.2120 O.2    36  ASN36      -0.2716
     16  ND2       51.9120   30.2560   -1.5240 N.am   36  ASN36      -0.0877
     17  N         55.3450   28.0810   -5.2230 N.am   37  ALA37      -0.1979
     18  CA        56.5890   28.1720   -5.9680 C.3    37  ALA37       0.1597
     19  C         56.3080   27.6880   -7.3870 C.2    37  ALA37       0.2287
     20  O         56.6980   28.3340   -8.3560 O.2    37  ALA37      -0.2864
     21  CB        57.6570   27.2990   -5.3090 C.3    37  ALA37       0.0319
     22  N         54.4600   30.2360   -9.3870 N.3    40  ALA40      -0.1245
     23  CA        55.3010   31.3550   -9.8120 C.3    40  ALA40       0.1562
     24  C         56.1870   30.9570  -10.9870 C.2    40  ALA40       0.2260
     25  O         56.5340   31.7900  -11.8270 O.2    40  ALA40      -0.2867
     26  CB        56.1580   31.8480   -8.6470 C.3    40  ALA40       0.0290
     27  N         54.0130   30.9530  -14.0890 N.3    43  LYS43      -0.1245
     28  CA        53.8500   32.3410  -14.5200 C.3    43  LYS43       0.1561
     29  C         54.9890   32.8520  -15.3870 C.2    43  LYS43       0.2260
     30  O         54.7460   33.3650  -16.4760 O.2    43  LYS43      -0.2867
     31  CB        53.6990   33.2670  -13.3100 C.3    43  LYS43       0.0271
     32  CG        52.5070   32.9800  -12.4170 C.3    43  LYS43       0.0035
     33  CD        51.1960   33.1930  -13.1320 C.3    43  LYS43       0.0206
     34  CE        50.1400   33.7450  -12.1760 C.3    43  LYS43       0.1093
     35  NZ        49.9240   32.8830  -10.9790 N.3    43  LYS43      -0.1314
     36  N         62.4650   29.4840   -5.3530 N.3    78  ASP78      -0.1239
     37  CA        61.9500   29.1540   -6.6730 C.3    78  ASP78       0.1674
     38  C         62.5410   30.1990   -7.6070 C.2    78  ASP78       0.2266
     39  O         62.9140   31.2900   -7.1700 O.2    78  ASP78      -0.2867
     40  CB        60.4060   29.1880   -6.7220 C.3    78  ASP78       0.1410
     41  CG        59.8330   30.5730   -6.5050 C.2    78  ASP78       0.3668
     42  OD1       60.0200   31.4400   -7.3770 O.co2  78  ASP78      -0.2456
     43  OD2       59.1970   30.8010   -5.4540 O.co2  78  ASP78      -0.2456
     44  N         58.4740   33.9360  -11.2600 N.3    81  ILE81      -0.1231
     45  CA        58.3170   35.3190  -11.6830 C.3    81  ILE81       0.1692
     46  C         58.7630   36.3780  -10.6670 C.2    81  ILE81       0.2593
     47  O         59.1080   37.4990  -11.0460 O.2    81  ILE81      -0.2718
     48  CB        56.8470   35.5680  -12.1000 C.3    81  ILE81       0.0266
     49  CG1       56.7200   36.9290  -12.7810 C.3    81  ILE81       0.0019
     50  CG2       55.9320   35.4550  -10.8880 C.3    81  ILE81       0.0020
     51  CD1       55.3960   37.1200  -13.5060 C.3    81  ILE81       0.0001
     52  N         58.7670   36.0280   -9.3840 N.am   82  GLY82      -0.1942
     53  CA        59.1810   36.9840   -8.3690 C.3    82  GLY82       0.2014
     54  C         58.1390   38.0550   -8.0760 C.2    82  GLY82       0.2638
     55  O         57.0540   38.0560   -8.6600 O.2    82  GLY82      -0.2714
     56  N         58.4650   38.9670   -7.1620 N.am   83  MET83      -0.1976
     57  CA        57.5540   40.0470   -6.7860 C.3    83  MET83       0.1605
     58  C         58.3080   41.3660   -6.6260 C.2    83  MET83       0.2287
     59  O         59.3770   41.4170   -6.0130 O.2    83  MET83      -0.2864
     60  CB        56.8400   39.7150   -5.4650 C.3    83  MET83       0.0413
     61  CG        55.9040   38.5050   -5.5210 C.3    83  MET83       0.0598
     62  SD        55.2360   38.1030   -3.8870 S.3    83  MET83      -0.1393
     63  CE        56.5540   37.0640   -3.2760 C.3    83  MET83       0.0692
     64  N         54.3340   44.7560   -5.4240 N.3    87  GLU87      -0.1231
     65  CA        53.6120   43.5030   -5.2730 C.3    87  GLU87       0.1699
     66  C         53.7590   42.9570   -3.8510 C.2    87  GLU87       0.2592
     67  O         52.8040   42.4330   -3.2810 O.2    87  GLU87      -0.2718
     68  CB        54.1120   42.4870   -6.2930 C.3    87  GLU87       0.0402
     69  CG        53.8080   42.8990   -7.7220 C.3    87  GLU87       0.1161
     70  CD        54.3060   41.9000   -8.7360 C.2    87  GLU87       0.3649
     71  OE1       55.5300   41.6890   -8.8180 O.co2  87  GLU87      -0.2457
     72  OE2       53.4710   41.3230   -9.4570 O.co2  87  GLU87      -0.2457
     73  N         54.9510   43.0840   -3.2750 N.am   88  LEU88      -0.1980
     74  CA        55.1660   42.6050   -1.9110 C.3    88  LEU88       0.1596
     75  C         54.2500   43.3700   -0.9610 C.2    88  LEU88       0.2287
     76  O         53.6400   42.7790   -0.0700 O.2    88  LEU88      -0.2864
     77  CB        56.6310   42.7910   -1.4920 C.3    88  LEU88       0.0297
     78  CG        57.6510   41.8640   -2.1660 C.3    88  LEU88       0.0022
     79  CD1       59.0720   42.3050   -1.8100 C.3    88  LEU88       0.0001
     80  CD2       57.4060   40.4200   -1.7210 C.3    88  LEU88       0.0001
     81  N         49.7930   30.5120    1.6780 N.3   116  PHE116     -0.1227
     82  CA        51.0630   31.1130    2.0760 C.3   116  PHE116      0.1736
     83  C         51.1400   31.2020    3.5950 C.2   116  PHE116      0.2595
     84  O         52.1680   30.8920    4.2020 O.2   116  PHE116     -0.2718
     85  CB        51.1740   32.5240    1.4750 C.3   116  PHE116      0.0547
     86  CG        52.2720   33.3680    2.0740 C.ar  116  PHE116     -0.0202
     87  CD1       53.5900   33.2230    1.6540 C.ar  116  PHE116     -0.0042
     88  CD2       51.9790   34.3320    3.0430 C.ar  116  PHE116     -0.0042
     89  CE1       54.6070   34.0310    2.1860 C.ar  116  PHE116     -0.0003
     90  CE2       52.9860   35.1460    3.5820 C.ar  116  PHE116     -0.0003
     91  CZ        54.3010   34.9950    3.1520 C.ar  116  PHE116     -0.0000
     92  N         50.0350   31.6120    4.2110 N.am  117  TYR117     -0.1976
     93  CA        50.0060   31.7920    5.6610 C.3   117  TYR117      0.1639
     94  C         50.1310   30.5230    6.4940 C.2   117  TYR117      0.2290
     95  O         50.3110   30.6020    7.7060 O.2   117  TYR117     -0.2864
     96  CB        48.7580   32.6000    6.0460 C.3   117  TYR117      0.0560
     97  CG        48.7630   33.9760    5.4020 C.ar  117  TYR117     -0.0198
     98  CD1       49.5650   35.0030    5.9050 C.ar  117  TYR117     -0.0009
     99  CD2       48.0510   34.2150    4.2270 C.ar  117  TYR117     -0.0009
    100  CE1       49.6620   36.2320    5.2460 C.ar  117  TYR117      0.0417
    101  CE2       48.1430   35.4330    3.5610 C.ar  117  TYR117      0.0417
    102  CZ        48.9500   36.4340    4.0730 C.ar  117  TYR117      0.1957
    103  OH        49.0510   37.6280    3.3970 O.3   117  TYR117     -0.2866
    104  N         60.4840   37.1520    3.1510 N.3   128  VAL128     -0.1245
    105  CA        60.2450   36.7820    1.7610 C.3   128  VAL128      0.1561
    106  C         61.2180   37.6740    1.0060 C.2   128  VAL128      0.2260
    107  O         61.0900   38.8920    1.0280 O.2   128  VAL128     -0.2867
    108  CB        58.7950   37.0930    1.3370 C.3   128  VAL128      0.0252
    109  CG1       58.6220   36.9030   -0.1660 C.3   128  VAL128      0.0019
    110  CG2       57.8380   36.1820    2.1000 C.3   128  VAL128      0.0019
    111  N         60.6600   41.3450    2.4850 N.3   140  TRP140     -0.1241
    112  CA        59.3770   41.5560    3.1490 C.3   140  TRP140      0.1605
    113  C         59.5070   40.7080    4.4090 C.2   140  TRP140      0.2264
    114  O         59.9080   39.5500    4.3320 O.2   140  TRP140     -0.2867
    115  CB        58.2520   41.0190    2.2680 C.3   140  TRP140      0.0550
    116  CG        56.8700   41.0860    2.8330 C.ar  140  TRP140      0.0003
    117  CD1       55.9190   42.0350    2.5680 C.ar  140  TRP140      0.0946
    118  CD2       56.2320   40.0980    3.6510 C.ar  140  TRP140      0.0152
    119  NE1       54.7250   41.6870    3.1580 N.ar  140  TRP140     -0.2442
    120  CE2       54.8890   40.5040    3.8280 C.ar  140  TRP140      0.0810
    121  CE3       56.6620   38.9030    4.2460 C.ar  140  TRP140      0.0012
    122  CZ2       53.9710   39.7570    4.5730 C.ar  140  TRP140      0.0191
    123  CZ3       55.7440   38.1550    4.9900 C.ar  140  TRP140      0.0001
    124  CH2       54.4160   38.5880    5.1440 C.ar  140  TRP140      0.0015
    125  N         61.9750   33.9630   -5.7970 N.3   163  THR163     -0.1218
    126  CA        61.6650   34.2700   -4.4130 C.3   163  THR163      0.1862
    127  C         62.2160   33.2450   -3.4440 C.2   163  THR163      0.2287
    128  O         62.2960   32.0510   -3.7460 O.2   163  THR163     -0.2866
    129  CB        60.1320   34.3140   -4.2150 C.3   163  THR163      0.1770
    130  OG1       59.5540   35.2280   -5.1540 O.3   163  THR163     -0.2211
    131  CG2       59.7740   34.7410   -2.7950 C.3   163  THR163      0.0375
    132  N         61.5570   32.0150    0.4650 N.3   165  LEU165     -0.1245
    133  CA        60.7480   32.1320    1.6630 C.3   165  LEU165      0.1561
    134  C         61.7090   31.6120    2.7180 C.2   165  LEU165      0.2260
    135  O         62.0860   30.4390    2.6860 O.2   165  LEU165     -0.2867
    136  CB        59.5010   31.2520    1.5930 C.3   165  LEU165      0.0270
    137  CG        58.2170   32.0570    1.3840 C.3   165  LEU165      0.0019
    138  CD1       58.2260   32.6550   -0.0220 C.3   165  LEU165      0.0001
    139  CD2       56.9950   31.1600    1.6060 C.3   165  LEU165      0.0001
@<TRIPOS>BOND
     1    30    29    2
     2    29    28    1
     3    28    27    1
     4    28    31    1
     5    51    49    1
     6    31    32    1
     7    33    32    1
     8    33    34    1
     9    49    48    1
    10    34    35    1
    11    48    45    1
    12    48    50    1
    13    25    24    2
    14    45    44    1
    15    45    46    1
    16    47    46    2
    17    24    23    1
    18    46    52   am
    19    23    22    1
    20    23    26    1
    21    72    70   ar
    22    52    53    1
    23    71    70   ar
    24    70    69    1
    25    55    54    2
    26    53    54    1
    27    20    19    2
    28    54    56   am
    29    69    68    1
    30    38    39    2
    31    38    37    1
    32    19    18    1
    33    42    41   ar
    34    56    57    1
    35    57    58    1
    36    57    60    1
    37    40    37    1
    38    40    41    1
    39    37    36    1
    40    58    59    2
    41    41    43   ar
    42    12    11    2
    43    68    65    1
    44    18    21    1
    45    18    17    1
    46   125   126    1
    47    11    17   am
    48    11    10    1
    49    61    60    1
    50    61    62    1
    51    64    65    1
    52    65    66    1
    53   130   129    1
    54    10     9    1
    55    10    13    1
    56   126   129    1
    57   126   127    1
    58   129   131    1
    59    62    63    1
    60    66    67    2
    61    66    73   am
    62   128   127    2
    63    13    14    1
    64    73    74    1
    65    15    14    2
    66    14    16   am
    67     4     3    2
    68    78    79    1
    69    78    80    1
    70    78    77    1
    71    74    77    1
    72    74    75    1
    73     3     2    1
    74    75    76    2
    75     2     1    1
    76     2     5    1
    77   109   108    1
    78   138   137    1
    79   132   133    1
    80     5     6    1
    81   106   107    2
    82   106   105    1
    83   108   105    1
    84   108   110    1
    85   137   136    1
    86   137   139    1
    87    85    86    1
    88    85    82    1
    89   136   133    1
    90    87    86   ar
    91    87    89   ar
    92   133   134    1
    93    81    82    1
    94   105   104    1
    95     8     6    1
    96     6     7    1
    97    86    88   ar
    98    82    83    1
    99    89    91   ar
   100   115   116    1
   101   115   112    1
   102   111   112    1
   103   117   116   ar
   104   117   119   ar
   105   135   134    2
   106   116   118   ar
   107    88    90   ar
   108   112   113    1
   109    91    90   ar
   110   119   120   ar
   111   103   102    1
   112   101   102   ar
   113   101    99   ar
   114    83    84    2
   115    83    92   am
   116   118   120   ar
   117   118   121   ar
   118   120   122   ar
   119   102   100   ar
   120    92    93    1
   121    99    97   ar
   122   121   123   ar
   123   114   113    2
   124   122   124   ar
   125   123   124   ar
   126   100    98   ar
   127    97    98   ar
   128    97    96    1
   129    93    96    1
   130    93    94    1
   131    94    95    2
