@<TRIPOS>MOLECULE
tmp/1zwhA00.pdb
 96 88 0 0 0
SMALL
GASTEIGER

@<TRIPOS>ATOM
      1  N         16.8090  -11.1900    0.1600 N.3    33  LEU33      -0.1245
      2  CA        17.8740  -10.3280   -0.3440 C.3    33  LEU33       0.1561
      3  C         18.4600  -10.8560   -1.6530 C.2    33  LEU33       0.2260
      4  O         18.8810  -10.0760   -2.5080 O.2    33  LEU33      -0.2867
      5  CB        18.9660  -10.1570    0.7170 C.3    33  LEU33       0.0270
      6  CG        18.4630   -9.5720    2.0440 C.3    33  LEU33       0.0019
      7  CD1       19.6470   -9.2710    2.9620 C.3    33  LEU33       0.0001
      8  CD2       17.6580   -8.3050    1.7740 C.3    33  LEU33       0.0001
      9  N         16.0260   -9.8570   -4.3570 N.3    36  ASN36      -0.1225
     10  CA        16.1760   -8.4430   -4.6920 C.3    36  ASN36       0.1785
     11  C         17.4140   -8.2080   -5.5500 C.2    36  ASN36       0.2597
     12  O         17.3950   -7.3780   -6.4610 O.2    36  ASN36      -0.2718
     13  CB        16.2630   -7.5940   -3.4220 C.3    36  ASN36       0.1169
     14  CG        14.9170   -7.4000   -2.7610 C.2    36  ASN36       0.2627
     15  OD1       13.9210   -7.9820   -3.1800 O.2    36  ASN36      -0.2716
     16  ND2       14.8820   -6.5770   -1.7170 N.am   36  ASN36      -0.0877
     17  N         18.4860   -8.9370   -5.2490 N.am   37  ALA37      -0.1979
     18  CA        19.7290   -8.8200   -6.0040 C.3    37  ALA37       0.1597
     19  C         19.4810   -9.2880   -7.4330 C.2    37  ALA37       0.2287
     20  O         19.8980   -8.6400   -8.3940 O.2    37  ALA37      -0.2864
     21  CB        20.8240   -9.6670   -5.3560 C.3    37  ALA37       0.0319
     22  N         17.6070   -6.7530   -9.4030 N.3    40  ALA40      -0.1245
     23  CA        18.4430   -5.6150   -9.7780 C.3    40  ALA40       0.1562
     24  C         19.3090   -5.9690  -10.9800 C.2    40  ALA40       0.2260
     25  O         19.5820   -5.1220  -11.8350 O.2    40  ALA40      -0.2867
     26  CB        19.3230   -5.1940   -8.6000 C.3    40  ALA40       0.0290
     27  N         25.6290   -7.4120   -5.3670 N.3    78  ASP78      -0.1239
     28  CA        25.1820   -7.7550   -6.7090 C.3    78  ASP78       0.1674
     29  C         25.7350   -6.6970   -7.6460 C.2    78  ASP78       0.2266
     30  O         26.0640   -5.5900   -7.2150 O.2    78  ASP78      -0.2867
     31  CB        23.6420   -7.8190   -6.8070 C.3    78  ASP78       0.1410
     32  CG        22.9740   -6.4750   -6.5850 C.2    78  ASP78       0.3668
     33  OD1       23.1090   -5.5800   -7.4470 O.co2  78  ASP78      -0.2456
     34  OD2       22.3020   -6.3180   -5.5430 O.co2  78  ASP78      -0.2456
     35  N         21.6410   -2.9590  -11.3300 N.3    81  ILE81      -0.1231
     36  CA        21.4910   -1.5780  -11.7710 C.3    81  ILE81       0.1692
     37  C         21.9490   -0.5190  -10.7620 C.2    81  ILE81       0.2593
     38  O         22.2840    0.6040  -11.1420 O.2    81  ILE81      -0.2718
     39  CB        20.0220   -1.3120  -12.1820 C.3    81  ILE81       0.0266
     40  CG1       19.8980    0.0680  -12.8280 C.3    81  ILE81       0.0019
     41  CG2       19.1070   -1.4460  -10.9680 C.3    81  ILE81       0.0020
     42  CD1       18.5760    0.2830  -13.5410 C.3    81  ILE81       0.0001
     43  N         21.9730   -0.8720   -9.4820 N.am   82  GLY82      -0.1942
     44  CA        22.3950    0.0890   -8.4790 C.3    82  GLY82       0.2014
     45  C         21.3580    1.1710   -8.2300 C.2    82  GLY82       0.2638
     46  O         20.3150    1.2150   -8.8880 O.2    82  GLY82      -0.2714
     47  N         21.6460    2.0500   -7.2740 N.am   83  MET83      -0.1976
     48  CA        20.7400    3.1400   -6.9260 C.3    83  MET83       0.1605
     49  C         21.4910    4.4510   -6.7470 C.2    83  MET83       0.2287
     50  O         22.5100    4.5010   -6.0600 O.2    83  MET83      -0.2864
     51  CB        19.9950    2.8180   -5.6240 C.3    83  MET83       0.0413
     52  CG        19.0030    1.6670   -5.7230 C.3    83  MET83       0.0598
     53  SD        18.2750    1.2380   -4.1230 S.3    83  MET83      -0.1393
     54  CE        19.5400    0.1620   -3.4750 C.3    83  MET83       0.0692
     55  N         13.4890    5.0370   -2.7900 N.3    91  ASN91      -0.1225
     56  CA        13.2250    3.6030   -2.7220 C.3    91  ASN91       0.1785
     57  C         13.2960    2.9370   -1.3560 C.2    91  ASN91       0.2597
     58  O         12.5270    2.0200   -1.0740 O.2    91  ASN91      -0.2718
     59  CB        14.1730    2.8550   -3.6610 C.3    91  ASN91       0.1169
     60  CG        13.9310    3.1860   -5.1130 C.2    91  ASN91       0.2627
     61  OD1       13.1230    4.0580   -5.4360 O.2    91  ASN91      -0.2716
     62  ND2       14.6340    2.4940   -6.0010 N.am   91  ASN91      -0.0877
     63  N         14.2150    3.3810   -0.5060 N.am   92  LEU92      -0.1980
     64  CA        14.3610    2.7440    0.7930 C.3    92  LEU92       0.1596
     65  C         13.6960    3.4090    1.9890 C.2    92  LEU92       0.2287
     66  O         13.4910    2.7530    3.0100 O.2    92  LEU92      -0.2864
     67  CB        15.8490    2.5310    1.0960 C.3    92  LEU92       0.0297
     68  CG        16.6150    1.7020    0.0560 C.3    92  LEU92       0.0022
     69  CD1       18.0770    1.5810    0.4720 C.3    92  LEU92       0.0001
     70  CD2       15.9880    0.3170   -0.0710 C.3    92  LEU92       0.0001
     71  N         12.9970   -6.4340    1.5820 N.3   123  PHE123     -0.1241
     72  CA        14.2600   -5.8230    1.9870 C.3   123  PHE123      0.1605
     73  C         14.3440   -5.7090    3.5040 C.2   123  PHE123      0.2264
     74  O         15.3780   -5.9990    4.1120 O.2   123  PHE123     -0.2867
     75  CB        14.3700   -4.4200    1.3730 C.3   123  PHE123      0.0534
     76  CG        15.4570   -3.5640    1.9760 C.ar  123  PHE123     -0.0203
     77  CD1       16.7890   -3.7480    1.6190 C.ar  123  PHE123     -0.0042
     78  CD2       15.1410   -2.5570    2.8840 C.ar  123  PHE123     -0.0042
     79  CE1       17.7940   -2.9360    2.1580 C.ar  123  PHE123     -0.0003
     80  CE2       16.1380   -1.7380    3.4290 C.ar  123  PHE123     -0.0003
     81  CZ        17.4660   -1.9310    3.0610 C.ar  123  PHE123     -0.0000
     82  N         25.1640   -2.9990   -5.8830 N.3   170  THR170     -0.1218
     83  CA        24.8080   -2.6910   -4.5140 C.3   170  THR170      0.1862
     84  C         25.3350   -3.7150   -3.5250 C.2   170  THR170      0.2287
     85  O         25.3910   -4.9120   -3.8140 O.2   170  THR170     -0.2866
     86  CB        23.2700   -2.6510   -4.3770 C.3   170  THR170      0.1770
     87  OG1       22.7420   -1.6820   -5.2940 O.3   170  THR170     -0.2211
     88  CG2       22.8480   -2.2990   -2.9500 C.3   170  THR170      0.0375
     89  N         24.6850   -4.8940    0.4550 N.3   172  LEU172     -0.1245
     90  CA        23.8970   -4.7510    1.6640 C.3   172  LEU172      0.1561
     91  C         24.8490   -5.2840    2.7220 C.2   172  LEU172      0.2260
     92  O         25.1730   -6.4760    2.7340 O.2   172  LEU172     -0.2867
     93  CB        22.6190   -5.5940    1.6240 C.3   172  LEU172      0.0270
     94  CG        21.3460   -4.8390    1.2270 C.3   172  LEU172      0.0019
     95  CD1       21.4920   -4.2810   -0.1850 C.3   172  LEU172      0.0001
     96  CD2       20.1460   -5.7830    1.3210 C.3   172  LEU172      0.0001
@<TRIPOS>BOND
     1    42    40    1
     2    40    39    1
     3    39    36    1
     4    39    41    1
     5    25    24    2
     6    36    35    1
     7    36    37    1
     8    38    37    2
     9    24    23    1
    10    37    43   am
    11    23    22    1
    12    23    26    1
    13    43    44    1
    14    46    45    2
    15    44    45    1
    16    20    19    2
    17    45    47   am
    18    29    30    2
    19    29    28    1
    20    33    32   ar
    21    19    18    1
    22    47    48    1
    23    48    49    1
    24    48    51    1
    25    31    28    1
    26    31    32    1
    27    49    50    2
    28    28    27    1
    29    32    34   ar
    30    12    11    2
    31    18    21    1
    32    18    17    1
    33    62    60   am
    34    82    83    1
    35    52    51    1
    36    52    53    1
    37    11    17   am
    38    11    10    1
    39    61    60    2
    40    87    86    1
    41    60    59    1
    42    10     9    1
    43    10    13    1
    44    83    86    1
    45    83    84    1
    46    86    88    1
    47    53    54    1
    48    85    84    2
    49    59    56    1
    50    13    14    1
    51    15    14    2
    52    55    56    1
    53    14    16   am
    54    56    57    1
    55     4     3    2
    56     3     2    1
    57    57    58    2
    58    57    63   am
    59    63    64    1
    60     2     1    1
    61     2     5    1
    62    95    94    1
    63    70    68    1
    64    68    69    1
    65    68    67    1
    66    89    90    1
    67     5     6    1
    68    64    67    1
    69    64    65    1
    70    94    96    1
    71    94    93    1
    72    75    76    1
    73    75    72    1
    74    71    72    1
    75    77    76   ar
    76    77    79   ar
    77    93    90    1
    78    90    91    1
    79     8     6    1
    80    76    78   ar
    81    72    73    1
    82    65    66    2
    83     6     7    1
    84    79    81   ar
    85    91    92    2
    86    78    80   ar
    87    81    80   ar
    88    73    74    2
