@<TRIPOS>MOLECULE
tmp/1zwlA00.pdb
 112 109 0 0 0
SMALL
GASTEIGER

@<TRIPOS>ATOM
      1  N         -6.3910   26.0090   19.3670 N.3     9  SER9       -0.1202
      2  CA        -5.7820   24.7030   19.6050 C.3     9  SER9        0.2020
      3  C         -4.8900   24.3640   18.4280 C.2     9  SER9        0.2619
      4  O         -5.2730   24.6250   17.2870 O.2     9  SER9       -0.2717
      5  CB        -6.8530   23.6240   19.7880 C.3     9  SER9        0.2103
      6  OG        -6.2460   22.3710   20.0660 O.3     9  SER9       -0.2182
      7  N         -3.7020   23.8150   18.6840 N.am   10  ARG10      -0.1965
      8  CA        -2.7950   23.4670   17.5780 C.3    10  ARG10       0.1729
      9  C         -2.8320   21.9750   17.2350 C.2    10  ARG10       0.2616
     10  O         -3.0080   21.6230   16.0710 O.2    10  ARG10      -0.2715
     11  CB        -1.3650   23.9630   17.8230 C.3    10  ARG10       0.0348
     12  CG        -0.3490   23.6260   16.7220 C.3    10  ARG10       0.0492
     13  CD        -0.7790   24.1690   15.3560 C.3    10  ARG10       0.2205
     14  NE         0.1890   23.8610   14.2920 N.pl3  10  ARG10      -0.0865
     15  CZ         0.4000   22.6500   13.7620 C.cat  10  ARG10       0.5346
     16  NH1       -0.2690   21.5780   14.1850 N.pl3  10  ARG10       0.1354
     17  NH2        1.2990   22.5000   12.7990 N.pl3  10  ARG10       0.1354
     18  N         -2.6820   21.1090   18.2360 N.am   11  HIS11      -0.1973
     19  CA        -2.7820   19.6620   18.0220 C.3    11  HIS11       0.1656
     20  C         -4.0160   19.0070   18.6680 C.2    11  HIS11       0.2291
     21  O         -3.9480   17.8370   19.0610 O.2    11  HIS11      -0.2864
     22  CB        -1.5050   18.9620   18.5030 C.3    11  HIS11       0.0771
     23  CG        -0.2700   19.4570   17.8260 C.ar   11  HIS11       0.0820
     24  ND1        0.6860   20.2060   18.4780 N.ar   11  HIS11      -0.2267
     25  CD2        0.1460   19.3490   16.5410 C.ar   11  HIS11       0.1154
     26  CE1        1.6460   20.5280   17.6290 C.ar   11  HIS11       0.1986
     27  NE2        1.3410   20.0230   16.4470 N.ar   11  HIS11      -0.2212
     28  N         -5.7270   19.0450   21.6130 N.3    13  ALA13      -0.1231
     29  CA        -5.9870   18.8790   23.0600 C.3    13  ALA13       0.1694
     30  C         -6.9840   19.8970   23.6510 C.2    13  ALA13       0.2592
     31  O         -7.9200   19.5210   24.3700 O.2    13  ALA13      -0.2718
     32  CB        -4.6870   18.8650   23.8540 C.3    13  ALA13       0.0304
     33  N         -6.7850   21.1780   23.3410 N.am   14  THR14      -0.1953
     34  CA        -7.6620   22.2540   23.8180 C.3    14  THR14       0.1897
     35  C         -9.0310   22.1700   23.1460 C.2    14  THR14       0.2313
     36  O        -10.0450   22.4450   23.7730 O.2    14  THR14      -0.2863
     37  CB        -7.0030   23.6530   23.5970 C.3    14  THR14       0.1794
     38  OG1       -5.7730   23.6950   24.3170 O.3    14  THR14      -0.2208
     39  CG2       -7.8790   24.8050   24.0790 C.3    14  THR14       0.0378
     40  N         -3.7710   26.4810   24.7690 N.3    63  PRO63      -0.2102
     41  CA        -2.6610   25.7080   25.3170 C.3    63  PRO63       0.1504
     42  C         -1.7550   26.6570   26.0660 C.2    63  PRO63       0.2576
     43  O         -1.6240   27.8230   25.6740 O.2    63  PRO63      -0.2718
     44  CB        -1.9200   25.2100   24.0720 C.3    63  PRO63       0.0282
     45  CG        -2.3260   26.1410   22.9760 C.3    63  PRO63       0.0208
     46  CD        -3.7350   26.5300   23.2990 C.3    63  PRO63       0.0893
     47  N         -1.1380   26.1790   27.1350 N.am   64  THR64      -0.1939
     48  CA        -0.1570   26.9900   27.8220 C.3    64  THR64       0.2028
     49  C          1.1060   27.0410   26.9920 C.2    64  THR64       0.2642
     50  O          1.7240   26.0230   26.7240 O.2    64  THR64      -0.2714
     51  CB         0.1050   26.5490   29.3010 C.3    64  THR64       0.1808
     52  OG1        1.4640   26.8480   29.6650 O.3    64  THR64      -0.2208
     53  CG2       -0.1630   25.0860   29.5310 C.3    64  THR64       0.0379
     54  N          1.4520   28.2440   26.5520 N.am   65  ARG65      -0.1963
     55  CA         2.7120   28.4890   25.8420 C.3    65  ARG65       0.1729
     56  C          3.5730   29.4640   26.6540 C.2    65  ARG65       0.2616
     57  O          3.2740   30.6540   26.7420 O.2    65  ARG65      -0.2715
     58  CB         2.4360   29.0250   24.4380 C.3    65  ARG65       0.0348
     59  CG         1.3600   28.2500   23.7140 C.3    65  ARG65       0.0492
     60  CD         1.9220   27.3750   22.6160 C.3    65  ARG65       0.2205
     61  NE         1.7790   28.0360   21.3220 N.pl3  65  ARG65      -0.0865
     62  CZ         1.2140   27.4840   20.2520 C.cat  65  ARG65       0.5346
     63  NH1        0.7620   26.2280   20.2990 N.pl3  65  ARG65       0.1354
     64  NH2        1.1260   28.1790   19.1230 N.pl3  65  ARG65       0.1354
     65  N          4.6060   28.9210   27.2830 N.am   66  PHE66      -0.1960
     66  CA         5.5090   29.6440   28.1920 C.3    66  PHE66       0.1771
     67  C          4.8360   30.4750   29.2880 C.2    66  PHE66       0.2620
     68  O          5.3120   31.5420   29.6450 O.2    66  PHE66      -0.2715
     69  CB         6.5540   30.4380   27.4010 C.3    66  PHE66       0.0574
     70  CG         7.3780   29.5720   26.4770 C.ar   66  PHE66      -0.0200
     71  CD1        8.0450   28.4440   26.9710 C.ar   66  PHE66      -0.0042
     72  CD2        7.4570   29.8560   25.1140 C.ar   66  PHE66      -0.0042
     73  CE1        8.7800   27.6350   26.1260 C.ar   66  PHE66      -0.0003
     74  CE2        8.1970   29.0520   24.2620 C.ar   66  PHE66      -0.0003
     75  CZ         8.8580   27.9440   24.7680 C.ar   66  PHE66      -0.0000
     76  N          3.7380   29.9640   29.8310 N.am   67  GLY67      -0.1954
     77  CA         3.0540   30.6120   30.9450 C.3    67  GLY67       0.1869
     78  C          1.9580   31.5560   30.5090 C.2    67  GLY67       0.2309
     79  O          1.2810   32.1290   31.3430 O.2    67  GLY67      -0.2863
     80  N         -4.4320   23.6400   28.3370 N.3    99  SER99      -0.1202
     81  CA        -3.8310   22.3430   28.1800 C.3    99  SER99       0.2020
     82  C         -2.3340   22.4930   28.2840 C.2    99  SER99       0.2619
     83  O         -1.7830   23.4840   27.8300 O.2    99  SER99      -0.2717
     84  CB        -4.2100   21.7530   26.8270 C.3    99  SER99       0.2103
     85  OG        -3.4800   20.5660   26.5890 O.3    99  SER99      -0.2182
     86  N         -1.6870   21.4700   28.8320 N.am  100  THR100     -0.1938
     87  CA        -0.2860   21.5380   29.2330 C.3   100  THR100      0.2028
     88  C          0.5570   20.2780   28.8510 C.2   100  THR100      0.2642
     89  O          0.0390   19.1590   28.7900 O.2   100  THR100     -0.2714
     90  CB        -0.2280   21.8160   30.7580 C.3   100  THR100      0.1808
     91  OG1        1.0920   22.2110   31.1450 O.3   100  THR100     -0.2208
     92  CG2       -0.6690   20.5790   31.5730 C.3   100  THR100      0.0379
     93  N          1.8520   20.4590   28.5970 N.am  101  ALA101     -0.1963
     94  CA         2.7440   19.3190   28.3530 C.3   101  ALA101      0.1728
     95  C          3.2570   18.6430   29.6410 C.2   101  ALA101      0.2616
     96  O          3.5530   17.4550   29.6250 O.2   101  ALA101     -0.2715
     97  CB         3.9050   19.7110   27.4490 C.3   101  ALA101      0.0334
     98  N          3.3670   19.3710   30.7530 N.am  102  SER102     -0.1950
     99  CA         3.7710   18.7360   32.0300 C.3   102  SER102      0.1924
    100  C          2.7540   18.9170   33.1530 C.2   102  SER102      0.2314
    101  O          1.8880   19.7940   33.0640 O.2   102  SER102     -0.2863
    102  CB         5.1650   19.1940   32.4870 C.3   102  SER102      0.2116
    103  OG         5.4020   20.5560   32.1700 O.3   102  SER102     -0.2180
    104  N          3.3870   22.4340   34.6020 N.3   105  GLY105     -0.1225
    105  CA         3.9620   23.2320   33.5390 C.3   105  GLY105      0.1811
    106  C          3.3920   24.6320   33.5490 C.2   105  GLY105      0.2280
    107  O          3.4440   25.3380   32.5370 O.2   105  GLY105     -0.2866
    108  N         -1.1060   16.6140   29.0220 N.3   141  ALA141     -0.1245
    109  CA        -1.0250   15.8940   27.7490 C.3   141  ALA141      0.1562
    110  C          0.2940   15.1460   27.5170 C.2   141  ALA141      0.2260
    111  O          0.4210   14.4160   26.5340 O.2   141  ALA141     -0.2867
    112  CB        -1.3350   16.8290   26.5800 C.3   141  ALA141      0.0290
@<TRIPOS>BOND
     1    17    15    1
     2    15    16    1
     3    15    14    2
     4    14    13    1
     5    13    12    1
     6    10     9    2
     7    27    25   ar
     8    27    26   ar
     9    25    23   ar
    10    12    11    1
    11     9     8    1
    12     9    18   am
    13     4     3    2
    14     8    11    1
    15     8     7    1
    16    26    24   ar
    17    23    24   ar
    18    23    22    1
    19    19    18    1
    20    19    22    1
    21    19    20    1
    22     3     7   am
    23     3     2    1
    24    20    21    2
    25    64    62    1
    26     1     2    1
    27     2     5    1
    28     5     6    1
    29    62    63    1
    30    62    61    2
    31    61    60    1
    32    28    29    1
    33    60    59    1
    34    45    46    1
    35    45    44    1
    36    29    30    1
    37    29    32    1
    38    35    36    2
    39    35    34    1
    40    46    40    1
    41    33    30   am
    42    33    34    1
    43    37    34    1
    44    37    39    1
    45    37    38    1
    46    30    31    2
    47    59    58    1
    48    44    41    1
    49    74    75   ar
    50    74    72   ar
    51    58    55    1
    52    75    73   ar
    53    40    41    1
    54    72    70   ar
    55    41    42    1
    56    43    42    2
    57    55    54    1
    58    55    56    1
    59    42    47   am
    60    73    71   ar
    61    70    71   ar
    62    70    69    1
    63   111   110    2
    64    54    49   am
    65   112   109    1
    66    85    84    1
    67    56    57    2
    68    56    65   am
    69    50    49    2
    70    84    81    1
    71    49    48    1
    72    47    48    1
    73    65    66    1
    74    69    66    1
    75    97    94    1
    76   110   109    1
    77   109   108    1
    78    48    51    1
    79    83    82    2
    80    81    82    1
    81    81    80    1
    82    66    67    1
    83    82    86   am
    84    94    93    1
    85    94    95    1
    86    93    88   am
    87    89    88    2
    88    86    87    1
    89    88    87    1
    90    87    90    1
    91    67    68    2
    92    67    76   am
    93    51    53    1
    94    51    52    1
    95    96    95    2
    96    95    98   am
    97    76    77    1
    98    78    77    1
    99    78    79    2
   100    98    99    1
   101    90    91    1
   102    90    92    1
   103    99   102    1
   104    99   100    1
   105   103   102    1
   106   107   106    2
   107   101   100    2
   108   105   106    1
   109   105   104    1
