@<TRIPOS>MOLECULE
tmp/1zwpA00.pdb
 114 113 0 0 0
SMALL
GASTEIGER

@<TRIPOS>ATOM
      1  N         10.5490   16.5190   -5.4090 N.3     2  LEU2       -0.1245
      2  CA         9.2660   17.2000   -5.2790 C.3     2  LEU2        0.1561
      3  C          8.2180   16.3060   -4.6330 C.2     2  LEU2        0.2260
      4  O          7.4420   16.7570   -3.7890 O.2     2  LEU2       -0.2867
      5  CB         8.8060   17.6890   -6.6380 C.3     2  LEU2        0.0270
      6  CG         7.5010   18.4320   -6.6820 C.3     2  LEU2        0.0019
      7  CD1        7.5360   19.6820   -5.8430 C.3     2  LEU2        0.0001
      8  CD2        7.1550   18.7300   -8.1280 C.3     2  LEU2        0.0001
      9  N          8.9780   16.1000   -0.9700 N.3     5  PHE5       -0.1241
     10  CA         8.5800   17.3350   -0.3440 C.3     5  PHE5        0.1605
     11  C          7.0700   17.3460   -0.1400 C.2     5  PHE5        0.2264
     12  O          6.5830   17.7620    0.9130 O.2     5  PHE5       -0.2867
     13  CB         9.0300   18.5120   -1.2390 C.3     5  PHE5        0.0534
     14  CG         8.7280   19.9000   -0.7140 C.ar    5  PHE5       -0.0203
     15  CD1        8.8520   20.2350    0.6240 C.ar    5  PHE5       -0.0042
     16  CD2        8.3780   20.8860   -1.6010 C.ar    5  PHE5       -0.0042
     17  CE1        8.6290   21.5280    1.0410 C.ar    5  PHE5       -0.0003
     18  CE2        8.1580   22.1760   -1.1960 C.ar    5  PHE5       -0.0003
     19  CZ         8.2980   22.5000    0.1520 C.ar    5  PHE5       -0.0000
     20  N          0.6490   24.0870   -4.3800 N.3    22  SER22      -0.1217
     21  CA         1.2160   23.9570   -5.7150 C.3    22  SER22       0.1889
     22  C          1.0050   25.1730   -6.5720 C.2    22  SER22       0.2288
     23  O          1.6500   25.2890   -7.6200 O.2    22  SER22      -0.2866
     24  CB         0.5970   22.7100   -6.4180 C.3    22  SER22       0.2089
     25  OG        -0.8180   22.7190   -6.2610 O.3    22  SER22      -0.2183
     26  N          4.7220   32.6400   -4.9890 N.3    27  TYR27      -0.1227
     27  CA         5.9380   31.8400   -4.9380 C.3    27  TYR27       0.1736
     28  C          5.7560   30.3570   -4.7450 C.2    27  TYR27       0.2596
     29  O          6.7270   29.6080   -4.9130 O.2    27  TYR27      -0.2718
     30  CB         6.8860   32.3870   -3.8800 C.3    27  TYR27       0.0548
     31  CG         7.4360   33.7140   -4.3120 C.ar   27  TYR27      -0.0200
     32  CD1        8.5280   33.7780   -5.1440 C.ar   27  TYR27      -0.0009
     33  CD2        6.8150   34.8980   -3.9650 C.ar   27  TYR27      -0.0009
     34  CE1        9.0070   34.9630   -5.5960 C.ar   27  TYR27       0.0417
     35  CE2        7.2880   36.1060   -4.4030 C.ar   27  TYR27       0.0417
     36  CZ         8.4070   36.1440   -5.2300 C.ar   27  TYR27       0.1957
     37  OH         8.9070   37.3410   -5.6870 O.3    27  TYR27      -0.2866
     38  N          4.5880   29.8920   -4.3770 N.am   28  CYS28      -0.1956
     39  CA         4.4310   28.4660   -4.1200 C.3    28  CYS28       0.1843
     40  C          4.1120   27.7440   -5.3820 C.2    28  CYS28       0.2626
     41  O          3.1160   28.0290   -6.0590 O.2    28  CYS28      -0.2714
     42  CB         3.3200   28.1770   -3.1470 C.3    28  CYS28       0.0997
     43  SG         3.4920   28.9310   -1.5380 S.3    28  CYS28      -0.0797
     44  N          4.9630   26.7800   -5.7150 N.am   29  GLY29      -0.1940
     45  CA         4.6850   25.8920   -6.8290 C.3    29  GLY29       0.2014
     46  C          5.1410   26.4970   -8.1170 C.2    29  GLY29       0.2639
     47  O          5.4250   25.7590   -9.0500 O.2    29  GLY29      -0.2714
     48  N          5.1450   27.8290   -8.1840 N.am   30  TRP30      -0.1959
     49  CA         5.7890   28.6120   -9.2280 C.3    30  TRP30       0.1771
     50  C          6.2380   29.9440   -8.6260 C.2    30  TRP30       0.2620
     51  O          5.3900   30.7020   -8.1290 O.2    30  TRP30      -0.2715
     52  CB         4.8280   28.9040  -10.3950 C.3    30  TRP30       0.0590
     53  CG         4.9650   27.9660  -11.5320 C.ar   30  TRP30       0.0006
     54  CD1        4.8680   26.6180  -11.4890 C.ar   30  TRP30       0.0946
     55  CD2        5.2290   28.3010  -12.8960 C.ar   30  TRP30       0.0152
     56  NE1        5.0660   26.0790  -12.7300 N.ar   30  TRP30      -0.2442
     57  CE2        5.2940   27.0930  -13.6150 C.ar   30  TRP30       0.0810
     58  CE3        5.4360   29.5010  -13.5760 C.ar   30  TRP30       0.0012
     59  CZ2        5.5450   27.0470  -14.9780 C.ar   30  TRP30       0.0191
     60  CZ3        5.6870   29.4520  -14.9280 C.ar   30  TRP30       0.0001
     61  CH2        5.7380   28.2350  -15.6160 C.ar   30  TRP30       0.0015
     62  N          7.5510   30.1990   -8.6400 N.am   31  GLY31      -0.1940
     63  CA         8.1230   31.5400   -8.4390 C.3    31  GLY31       0.2014
     64  C          7.6230   32.4350   -9.5620 C.2    31  GLY31       0.2639
     65  O          6.5880   32.1180  -10.1690 O.2    31  GLY31      -0.2714
     66  N          8.2960   33.5440   -9.8850 N.am   32  GLY32      -0.1954
     67  CA         9.4840   34.0530   -9.2080 C.3    32  GLY32       0.1869
     68  C          9.4750   35.5700   -9.1460 C.2    32  GLY32       0.2309
     69  O         10.5340   36.2070   -9.2260 O.2    32  GLY32      -0.2863
     70  N          7.3470   29.8920    0.7720 N.3    44  CYS44      -0.1235
     71  CA         7.7120   29.5100   -0.5630 C.3    44  CYS44       0.1677
     72  C          8.7890   30.3720   -1.1680 C.2    44  CYS44       0.2270
     73  O          9.6520   29.8610   -1.8780 O.2    44  CYS44      -0.2867
     74  CB         6.4620   29.4820   -1.4620 C.3    44  CYS44       0.0956
     75  SG         5.3320   28.2030   -0.9500 S.3    44  CYS44      -0.0801
     76  N         11.9220   29.1790    0.3530 N.3    47  HIS47      -0.1226
     77  CA        12.2310   27.8580   -0.1710 C.3    47  HIS47       0.1752
     78  C         12.8120   27.9650   -1.5650 C.2    47  HIS47       0.2596
     79  O         13.7640   27.2800   -1.9000 O.2    47  HIS47      -0.2718
     80  CB        10.9550   27.0300   -0.1570 C.3    47  HIS47       0.0759
     81  CG        11.1480   25.6120   -0.5820 C.ar   47  HIS47       0.0818
     82  ND1       10.5940   25.1210   -1.7310 N.ar   47  HIS47      -0.2268
     83  CD2       11.7800   24.5880    0.0170 C.ar   47  HIS47       0.1154
     84  CE1       10.9270   23.8460   -1.8450 C.ar   47  HIS47       0.1986
     85  NE2       11.6080   23.4760   -0.7790 N.ar   47  HIS47      -0.2212
     86  N         12.2650   28.8520   -2.3740 N.am   48  ASP48      -0.1974
     87  CA        12.7970   29.0960   -3.7130 C.3    48  ASP48       0.1709
     88  C         14.2120   29.6430   -3.6110 C.2    48  ASP48       0.2293
     89  O         15.0970   29.2020   -4.3350 O.2    48  ASP48      -0.2864
     90  CB        11.9380   30.0800   -4.4690 C.3    48  ASP48       0.1436
     91  CG        10.5560   29.5480   -4.8250 C.2    48  ASP48       0.3671
     92  OD1       10.2650   28.3670   -4.6900 O.co2  48  ASP48      -0.2456
     93  OD2        9.7040   30.4290   -5.1950 O.co2  48  ASP48      -0.2456
     94  N         16.5480   26.7000   -2.6660 N.3    51  TYR51      -0.1241
     95  CA        16.9200   25.9450   -3.8420 C.3    51  TYR51       0.1605
     96  C         17.8520   26.7180   -4.7410 C.2    51  TYR51       0.2264
     97  O         18.7460   26.1480   -5.3550 O.2    51  TYR51      -0.2867
     98  CB        15.6920   25.5540   -4.6310 C.3    51  TYR51       0.0534
     99  CG        14.8760   24.3850   -4.1180 C.ar   51  TYR51      -0.0201
    100  CD1       15.1690   23.6850   -2.9610 C.ar   51  TYR51      -0.0009
    101  CD2       13.7770   23.9950   -4.8420 C.ar   51  TYR51      -0.0009
    102  CE1       14.3860   22.6130   -2.5690 C.ar   51  TYR51       0.0417
    103  CE2       13.0260   22.9010   -4.4670 C.ar   51  TYR51       0.0417
    104  CZ        13.3330   22.2250   -3.3160 C.ar   51  TYR51       0.1957
    105  OH        12.5470   21.1400   -2.9840 O.3    51  TYR51      -0.2866
    106  N         14.1230   18.9440   -7.7820 N.3    60  LYS60      -0.1245
    107  CA        12.8850   18.3140   -8.2160 C.3    60  LYS60       0.1561
    108  C         12.9370   16.8090   -8.1960 C.2    60  LYS60       0.2260
    109  O         11.9540   16.1650   -7.8870 O.2    60  LYS60      -0.2867
    110  CB        12.5010   18.8040   -9.6070 C.3    60  LYS60       0.0271
    111  CG        12.2700   20.3110   -9.6950 C.3    60  LYS60       0.0035
    112  CD        12.0740   21.0920   -8.3980 C.3    60  LYS60       0.0206
    113  CE        10.7580   20.8100   -7.7220 C.3    60  LYS60       0.1093
    114  NZ        10.4410   21.8330   -6.7280 N.3    60  LYS60      -0.1314
@<TRIPOS>BOND
     1    61    59   ar
     2    61    60   ar
     3    59    57   ar
     4    60    58   ar
     5    57    55   ar
     6    57    56   ar
     7    58    55   ar
     8    55    53   ar
     9    56    54   ar
    10    53    54   ar
    11    53    52    1
    12    52    49    1
    13    65    64    2
    14    66    64   am
    15    66    67    1
    16   111   110    1
    17   111   112    1
    18   110   107    1
    19    64    63    1
    20    49    50    1
    21    49    48    1
    22    69    68    2
    23    67    68    1
    24    47    46    2
    25    62    50   am
    26    62    63    1
    27    50    51    2
    28   112   113    1
    29   107   108    1
    30   107   106    1
    31   108   109    2
    32    48    46   am
    33     8     6    1
    34    46    45    1
    35   113   114    1
    36    23    22    2
    37    45    44    1
    38     6     5    1
    39     6     7    1
    40     5     2    1
    41    22    21    1
    42    24    25    1
    43    24    21    1
    44    41    40    2
    45    21    20    1
    46    44    40   am
    47    37    36    1
    48    34    36   ar
    49    34    32   ar
    50     1     2    1
    51    40    39    1
    52    97    96    2
    53     2     3    1
    54    36    35   ar
    55    93    91   ar
    56    32    31   ar
    57    26    27    1
    58    27    28    1
    59    27    30    1
    60    29    28    2
    61   101   103   ar
    62   101    99   ar
    63    91    92   ar
    64    91    90    1
    65    28    38   am
    66    96    95    1
    67     3     4    2
    68    98    99    1
    69    98    95    1
    70    90    87    1
    71   103   104   ar
    72    35    33   ar
    73    38    39    1
    74    89    88    2
    75    31    33   ar
    76    31    30    1
    77    39    42    1
    78    99   100   ar
    79    95    94    1
    80    87    88    1
    81    87    86    1
    82   104   105    1
    83   104   102   ar
    84    42    43    1
    85   100   102   ar
    86    86    78   am
    87    79    78    2
    88    73    72    2
    89    84    82   ar
    90    84    85   ar
    91    82    81   ar
    92    16    18   ar
    93    16    14   ar
    94    78    77    1
    95    43    75    1
    96    74    75    1
    97    74    71    1
    98    13    14    1
    99    13    10    1
   100    18    19   ar
   101    72    71    1
   102     9    10    1
   103    85    83   ar
   104    14    15   ar
   105    81    80    1
   106    81    83   ar
   107    71    70    1
   108    10    11    1
   109    77    80    1
   110    77    76    1
   111    11    12    2
   112    19    17   ar
   113    15    17   ar
