@<TRIPOS>MOLECULE
tmp/1zx8B01.pdb
 82 78 0 0 0
SMALL
GASTEIGER

@<TRIPOS>ATOM
      1  N         46.2440   90.3080   67.2730 N.3     8  LEU8       -0.1231
      2  CA        45.1500   89.7310   68.0030 C.3     8  LEU8        0.1693
      3  C         44.3290   90.8240   68.6680 C.2     8  LEU8        0.2592
      4  O         44.7700   91.4720   69.6250 O.2     8  LEU8       -0.2718
      5  CB        45.6550   88.7160   69.0400 C.3     8  LEU8        0.0284
      6  CG        46.4530   87.5090   68.5400 C.3     8  LEU8        0.0019
      7  CD1       47.9290   87.8170   68.5290 C.3     8  LEU8        0.0001
      8  CD2       46.1540   86.2840   69.4000 C.3     8  LEU8        0.0001
      9  N         43.0920   91.0020   68.1680 N.am    9  PHE9       -0.1962
     10  CA        42.1700   92.0010   68.6910 C.3     9  PHE9        0.1771
     11  C         41.2740   91.3040   69.7210 C.2     9  PHE9        0.2619
     12  O         41.4610   90.1100   69.9900 O.2     9  PHE9       -0.2715
     13  CB        41.3450   92.6050   67.5400 C.3     9  PHE9        0.0574
     14  CG        42.1780   93.1320   66.4120 C.ar    9  PHE9       -0.0200
     15  CD1       42.7470   94.3870   66.4840 C.ar    9  PHE9       -0.0042
     16  CD2       42.3780   92.3770   65.2780 C.ar    9  PHE9       -0.0042
     17  CE1       43.5090   94.8960   65.4560 C.ar    9  PHE9       -0.0003
     18  CE2       43.1360   92.8850   64.2380 C.ar    9  PHE9       -0.0003
     19  CZ        43.7090   94.1480   64.3550 C.ar    9  PHE9       -0.0000
     20  N         40.2900   91.9980   70.2710 N.am   10  GLU10      -0.1977
     21  CA        39.2810   91.3530   71.0960 C.3    10  GLU10       0.1602
     22  C         38.2410   90.6280   70.2420 C.2    10  GLU10       0.2287
     23  O         37.6850   89.6060   70.6670 O.2    10  GLU10      -0.2864
     24  CB        38.6050   92.3670   72.0020 C.3    10  GLU10       0.0415
     25  CG        39.5880   93.0710   72.9370 C.3    10  GLU10       0.1163
     26  CD        39.0070   94.2670   73.6360 C.2    10  GLU10       0.3649
     27  OE1       37.7830   94.4240   73.6640 O.co2  10  GLU10      -0.2457
     28  OE2       39.7980   95.0780   74.1540 O.co2  10  GLU10      -0.2457
     29  N         38.5880   89.5390   66.9900 N.3    12  GLY12      -0.1210
     30  CA        39.1260   88.8100   65.8700 C.3    12  GLY12       0.1956
     31  C         40.6340   88.9240   65.8140 C.2    12  GLY12       0.2611
     32  O         41.2470   89.3880   66.7690 O.2    12  GLY12      -0.2717
     33  N         41.2170   88.4830   64.6920 N.am   13  LYS13      -0.1979
     34  CA        42.6570   88.5450   64.5300 C.3    13  LYS13       0.1596
     35  C         42.9890   88.5460   63.0490 C.2    13  LYS13       0.2287
     36  O         42.1960   88.0860   62.2430 O.2    13  LYS13      -0.2864
     37  CB        43.3290   87.3390   65.2120 C.3    13  LYS13       0.0298
     38  CG        42.4550   86.1230   65.3990 C.3    13  LYS13       0.0038
     39  CD        43.0850   85.2240   66.4620 C.3    13  LYS13       0.0206
     40  CE        42.3990   83.8780   66.5910 C.3    13  LYS13       0.1093
     41  NZ        43.1900   82.9720   67.4740 N.3    13  LYS13      -0.1314
     42  N         51.6690   95.9940   72.8220 N.3    35  GLU35      -0.1245
     43  CA        50.2130   96.1180   72.7530 C.3    35  GLU35       0.1567
     44  C         49.8340   97.5520   72.4570 C.2    35  GLU35       0.2260
     45  O         50.5570   98.4770   72.8150 O.2    35  GLU35      -0.2867
     46  CB        49.5690   95.6930   74.0870 C.3    35  GLU35       0.0388
     47  CG        49.7190   94.1680   74.3050 C.3    35  GLU35       0.1160
     48  CD        50.9670   93.8650   75.0430 C.2    35  GLU35       0.3649
     49  OE1       51.2860   94.6640   75.9360 O.co2  35  GLU35      -0.2457
     50  OE2       51.6390   92.8690   74.7350 O.co2  35  GLU35      -0.2457
     51  N         41.6880   96.5210   72.4710 N.3   116  LYS116     -0.1231
     52  CA        43.1310   96.2900   72.6320 C.3   116  LYS116      0.1693
     53  C         43.5830   95.3980   71.5050 C.2   116  LYS116      0.2592
     54  O         42.7910   94.6270   70.9240 O.2   116  LYS116     -0.2718
     55  CB        43.4590   95.6730   73.9950 C.3   116  LYS116      0.0285
     56  CG        43.0970   96.5450   75.1630 C.3   116  LYS116      0.0035
     57  CD        43.4680   95.9130   76.4900 C.3   116  LYS116      0.0206
     58  CE        42.2710   95.3500   77.2250 C.3   116  LYS116      0.1093
     59  NZ        41.2960   96.3830   77.5970 N.3   116  LYS116     -0.1314
     60  N         44.8440   95.5890   71.1160 N.am  117  VAL117     -0.1966
     61  CA        45.4730   94.7570   70.1550 C.3   117  VAL117      0.1727
     62  C         46.8290   94.2980   70.7000 C.2   117  VAL117      0.2616
     63  O         47.6260   95.0890   71.2030 O.2   117  VAL117     -0.2715
     64  CB        45.6210   95.4500   68.7880 C.3   117  VAL117      0.0290
     65  CG1       46.4700   96.7450   68.8490 C.3   117  VAL117      0.0023
     66  CG2       46.2350   94.4800   67.6900 C.3   117  VAL117      0.0023
     67  N         47.0920   93.0160   70.5300 N.am  118  ALA118     -0.1977
     68  CA        48.3900   92.4470   70.8560 C.3   118  ALA118      0.1597
     69  C         49.1090   92.1980   69.5290 C.2   118  ALA118      0.2287
     70  O         48.5980   91.5570   68.5890 O.2   118  ALA118     -0.2864
     71  CB        48.2130   91.1690   71.7040 C.3   118  ALA118      0.0319
     72  N         52.2500   90.6060   67.7400 N.3   120  ARG120     -0.1245
     73  CA        53.0960   89.4650   67.9540 C.3   120  ARG120      0.1563
     74  C         53.7210   89.0330   66.6600 C.2   120  ARG120      0.2260
     75  O         53.1460   89.2520   65.6120 O.2   120  ARG120     -0.2867
     76  CB        52.2430   88.3120   68.5060 C.3   120  ARG120      0.0307
     77  CG        51.6170   88.5890   69.8640 C.3   120  ARG120      0.0489
     78  CD        52.6190   88.9700   70.9130 C.3   120  ARG120      0.2205
     79  NE        52.0730   89.1220   72.2600 N.pl3 120  ARG120     -0.0865
     80  CZ        51.7930   90.2510   72.8950 C.cat 120  ARG120      0.5346
     81  NH1       51.8750   91.4320   72.3280 N.pl3 120  ARG120      0.1354
     82  NH2       51.3520   90.1740   74.1280 N.pl3 120  ARG120      0.1354
@<TRIPOS>BOND
     1    36    35    2
     2    35    34    1
     3    18    19   ar
     4    18    16   ar
     5    19    17   ar
     6    34    33    1
     7    34    37    1
     8    33    31   am
     9    37    38    1
    10    16    14   ar
    11    38    39    1
    12    17    15   ar
    13    75    74    2
    14    31    30    1
    15    31    32    2
    16    30    29    1
    17    14    15   ar
    18    14    13    1
    19    39    40    1
    20    40    41    1
    21    74    73    1
    22     1     2    1
    23    13    10    1
    24    66    64    1
    25    72    73    1
    26    73    76    1
    27     2     3    1
    28     2     5    1
    29     9     3   am
    30     9    10    1
    31    76    77    1
    32     7     6    1
    33     6     5    1
    34     6     8    1
    35    70    69    2
    36     3     4    2
    37    10    11    1
    38    64    65    1
    39    64    61    1
    40    69    68    1
    41    11    12    2
    42    11    20   am
    43    77    78    1
    44    61    62    1
    45    61    60    1
    46    22    23    2
    47    22    21    1
    48    20    21    1
    49    67    62   am
    50    67    68    1
    51    62    63    2
    52    68    71    1
    53    78    79    1
    54    54    53    2
    55    21    24    1
    56    60    53   am
    57    53    52    1
    58    24    25    1
    59    79    80    2
    60    81    80    1
    61    44    43    1
    62    44    45    2
    63    51    52    1
    64    52    55    1
    65    43    42    1
    66    43    46    1
    67    80    82    1
    68    25    26    1
    69    26    27   ar
    70    26    28   ar
    71    55    56    1
    72    46    47    1
    73    47    48    1
    74    50    48   ar
    75    48    49   ar
    76    56    57    1
    77    57    58    1
    78    58    59    1
