@<TRIPOS>MOLECULE
tmp/1zxbB01.pdb
 168 160 0 0 0
SMALL
GASTEIGER

@<TRIPOS>ATOM
      1  N         14.6120  103.6040   35.2360 N.3   119  SER119     -0.1202
      2  CA        14.0130  102.4590   34.5730 C.3   119  SER119      0.2020
      3  C         12.8200  102.8760   33.7140 C.2   119  SER119      0.2619
      4  O         11.6940  102.4210   33.9250 O.2   119  SER119     -0.2717
      5  CB        13.5780  101.4410   35.6090 C.3   119  SER119      0.2103
      6  OG        13.0570  100.3020   34.9600 O.3   119  SER119     -0.2182
      7  N         13.0780  103.7530   32.7490 N.am  120  LEU120     -0.1965
      8  CA        12.0270  104.2840   31.9020 C.3   120  LEU120      0.1728
      9  C         12.5670  104.6800   30.5290 C.2   120  LEU120      0.2616
     10  O         13.6800  105.1940   30.3830 O.2   120  LEU120     -0.2715
     11  CB        11.3010  105.4530   32.5830 C.3   120  LEU120      0.0311
     12  CG        12.1340  106.6890   32.9170 C.3   120  LEU120      0.0022
     13  CD1       12.0360  107.7160   31.7930 C.3   120  LEU120      0.0001
     14  CD2       11.6430  107.2810   34.2130 C.3   120  LEU120      0.0001
     15  N         11.7590  104.3880   29.5240 N.am  121  ALA121     -0.1963
     16  CA        12.0250  104.7560   28.1620 C.3   121  ALA121      0.1728
     17  C         10.6490  105.1170   27.6860 C.2   121  ALA121      0.2616
     18  O          9.6390  104.7320   28.3020 O.2   121  ALA121     -0.2715
     19  CB        12.5440  103.5760   27.3810 C.3   121  ALA121      0.0334
     20  N         10.6030  105.8920   26.6150 N.am  122  ASN122     -0.1958
     21  CA         9.3600  106.1850   25.9740 C.3   122  ASN122      0.1819
     22  C          9.6200  106.7140   24.5930 C.2   122  ASN122      0.2621
     23  O         10.4010  107.6390   24.4180 O.2   122  ASN122     -0.2715
     24  CB         8.5550  107.2060   26.7720 C.3   122  ASN122      0.1195
     25  CG         7.1780  107.3670   26.2160 C.2   122  ASN122      0.2630
     26  OD1        7.0270  107.7960   25.0700 O.2   122  ASN122     -0.2716
     27  ND2        6.1660  106.9480   26.9710 N.am  122  ASN122     -0.0877
     28  N          8.9670  106.1320   23.6030 N.am  123  ALA123     -0.1963
     29  CA         9.1130  106.6190   22.2440 C.3   123  ALA123      0.1728
     30  C          7.7800  106.5410   21.5040 C.2   123  ALA123      0.2616
     31  O          7.3570  105.4600   21.0590 O.2   123  ALA123     -0.2715
     32  CB        10.2100  105.8580   21.5080 C.3   123  ALA123      0.0334
     33  N          7.1280  107.7010   21.3930 N.am  124  LYS124     -0.1977
     34  CA         5.8670  107.8340   20.6820 C.3   124  LYS124      0.1596
     35  C          5.8320  106.9500   19.4380 C.2   124  LYS124      0.2287
     36  O          4.9200  106.1310   19.2760 O.2   124  LYS124     -0.2864
     37  CB         5.6360  109.2990   20.2870 C.3   124  LYS124      0.0298
     38  CG         4.7670  110.1360   21.2330 C.3   124  LYS124      0.0038
     39  CD         4.9120  111.6330   20.8900 C.3   124  LYS124      0.0206
     40  CE         3.8210  112.5220   21.5300 C.3   124  LYS124      0.1093
     41  NZ         3.8920  112.6220   23.0270 N.3   124  LYS124     -0.1314
     42  N          7.5530  104.3360   18.0890 N.3   126  VAL126     -0.1245
     43  CA         8.3370  103.0840   18.1010 C.3   126  VAL126      0.1561
     44  C          7.9440  102.0900   17.0240 C.2   126  VAL126      0.2260
     45  O          8.7740  101.3260   16.5560 O.2   126  VAL126     -0.2867
     46  CB         8.3390  102.3820   19.5010 C.3   126  VAL126      0.0252
     47  CG1        6.9420  101.9420   19.9110 C.3   126  VAL126      0.0019
     48  CG2        9.2950  101.1820   19.5150 C.3   126  VAL126      0.0019
     49  N         19.3490   99.8750   29.4340 N.3   170  THR170     -0.1203
     50  CA        19.4690  100.0560   27.9970 C.3   170  THR170      0.1994
     51  C         19.2340   98.7470   27.2530 C.2   170  THR170      0.2617
     52  O         18.9210   97.7300   27.8630 O.2   170  THR170     -0.2717
     53  CB        20.8320  100.6920   27.6160 C.3   170  THR170      0.1784
     54  OG1       20.8720  100.9230   26.2010 O.3   170  THR170     -0.2211
     55  CG2       22.0140   99.8050   28.0500 C.3   170  THR170      0.0376
     56  N         19.3880   98.7800   25.9340 N.am  171  TYR171     -0.1975
     57  CA        19.1790   97.6110   25.0940 C.3   171  TYR171      0.1639
     58  C         20.2170   97.5340   23.9640 C.2   171  TYR171      0.2290
     59  O         20.6190   98.5440   23.3880 O.2   171  TYR171     -0.2864
     60  CB        17.7430   97.6200   24.5650 C.3   171  TYR171      0.0560
     61  CG        17.3150   96.4050   23.7720 C.ar  171  TYR171     -0.0198
     62  CD1       17.4040   95.1170   24.3090 C.ar  171  TYR171     -0.0009
     63  CD2       16.7670   96.5500   22.4990 C.ar  171  TYR171     -0.0009
     64  CE1       16.9830   94.0220   23.5920 C.ar  171  TYR171      0.0417
     65  CE2       16.3450   95.4480   21.7640 C.ar  171  TYR171      0.0417
     66  CZ        16.4590   94.1950   22.3140 C.ar  171  TYR171      0.1957
     67  OH        16.0550   93.1070   21.5740 O.3   171  TYR171     -0.2866
     68  N         12.5230   97.8560   16.6040 N.3   181  TYR181     -0.1241
     69  CA        12.8320   98.8000   17.6590 C.3   181  TYR181      0.1605
     70  C         13.0010  100.1860   17.0520 C.2   181  TYR181      0.2264
     71  O         14.1240  100.6660   16.8670 O.2   181  TYR181     -0.2867
     72  CB        14.1240   98.3600   18.2870 C.3   181  TYR181      0.0534
     73  CG        14.3660   98.8350   19.6860 C.ar  181  TYR181     -0.0201
     74  CD1       13.5700   98.3850   20.7390 C.ar  181  TYR181     -0.0009
     75  CD2       15.4450   99.6890   19.9720 C.ar  181  TYR181     -0.0009
     76  CE1       13.8250   98.7890   22.0350 C.ar  181  TYR181      0.0417
     77  CE2       15.7010  100.1050   21.2670 C.ar  181  TYR181      0.0417
     78  CZ        14.8890   99.6520   22.2900 C.ar  181  TYR181      0.1957
     79  OH        15.1360  100.0680   23.5680 O.3   181  TYR181     -0.2866
     80  N         14.1010  104.8700   19.3710 N.3   185  MET185     -0.1245
     81  CA        14.4840  104.1790   20.5960 C.3   185  MET185      0.1570
     82  C         15.9500  103.7470   20.5840 C.2   185  MET185      0.2261
     83  O         16.6340  103.8300   21.6150 O.2   185  MET185     -0.2867
     84  CB        13.5900  102.9780   20.8820 C.3   185  MET185      0.0387
     85  CG        12.5390  103.2160   21.9660 C.3   185  MET185      0.0595
     86  SD        13.0870  103.9870   23.5060 S.3   185  MET185     -0.1393
     87  CE        14.1180  102.6830   24.1060 C.3   185  MET185      0.0692
     88  N         18.8080  104.9200   23.1960 N.3   189  LYS189     -0.1245
     89  CA        19.6780  104.0200   23.9690 C.3   189  LYS189      0.1561
     90  C         21.1490  104.2470   23.6270 C.2   189  LYS189      0.2260
     91  O         21.9920  104.1990   24.5090 O.2   189  LYS189     -0.2867
     92  CB        19.3200  102.5530   23.7390 C.3   189  LYS189      0.0271
     93  CG        17.9730  102.1190   24.2990 C.3   189  LYS189      0.0035
     94  CD        17.8310  102.4900   25.7650 C.3   189  LYS189      0.0206
     95  CE        16.4000  102.2800   26.2590 C.3   189  LYS189      0.1093
     96  NZ        16.2510  102.5210   27.7180 N.3   189  LYS189     -0.1314
     97  N         18.4860   91.6600   28.6400 N.3   217  GLY217     -0.1210
     98  CA        17.7960   90.7680   27.7230 C.3   217  GLY217      0.1940
     99  C         16.3020   91.0930   27.6900 C.2   217  GLY217      0.2454
    100  O         15.8270   91.9920   28.3870 O.2   217  GLY217     -0.2732
    101  N         15.5440   90.3880   26.8490 N.am  218  PRO218     -0.2717
    102  CA        14.1370   90.7420   26.7630 C.3   218  PRO218      0.1535
    103  C         13.3170   90.1740   27.9050 C.2   218  PRO218      0.2598
    104  O         13.6560   89.1340   28.4510 O.2   218  PRO218     -0.2715
    105  CB        13.7070   90.1440   25.4270 C.3   218  PRO218      0.0310
    106  CG        14.6530   89.0010   25.2040 C.3   218  PRO218      0.0237
    107  CD        15.9230   89.3060   25.9220 C.3   218  PRO218      0.0939
    108  N         12.2460   90.8760   28.2520 N.am  219  LEU219     -0.1978
    109  CA        11.3450   90.4820   29.3210 C.3   219  LEU219      0.1596
    110  C          9.9720   90.9530   28.9010 C.2   219  LEU219      0.2287
    111  O          9.8520   92.0670   28.3760 O.2   219  LEU219     -0.2864
    112  CB        11.7360   91.1720   30.6260 C.3   219  LEU219      0.0297
    113  CG        10.8110   90.9190   31.8290 C.3   219  LEU219      0.0022
    114  CD1       11.0040   89.5090   32.3940 C.3   219  LEU219      0.0001
    115  CD2       10.9930   91.9730   32.9420 C.3   219  LEU219      0.0001
    116  N          7.4560   92.6890   29.6240 N.3   221  SER221     -0.1217
    117  CA         6.8790   93.7770   30.3790 C.3   221  SER221      0.1889
    118  C          5.7390   94.4200   29.5940 C.2   221  SER221      0.2288
    119  O          5.6300   94.2290   28.3790 O.2   221  SER221     -0.2866
    120  CB         7.9540   94.8150   30.6970 C.3   221  SER221      0.2089
    121  OG         8.4900   95.3650   29.5080 O.3   221  SER221     -0.2183
    122  N          5.3180   97.4890   28.7040 N.3   223  ALA223     -0.1231
    123  CA         5.8840   98.3680   27.6750 C.3   223  ALA223      0.1694
    124  C          6.4380   97.5960   26.4850 C.2   223  ALA223      0.2591
    125  O          6.3200   98.0500   25.3460 O.2   223  ALA223     -0.2718
    126  CB         6.9390   99.2880   28.2650 C.3   223  ALA223      0.0304
    127  N          7.0240   96.4290   26.7530 N.am  224  ALA224     -0.1980
    128  CA         7.5510   95.5500   25.7060 C.3   224  ALA224      0.1597
    129  C          6.4540   95.0070   24.7690 C.2   224  ALA224      0.2287
    130  O          6.6430   94.9170   23.5460 O.2   224  ALA224     -0.2864
    131  CB         8.3440   94.4080   26.3250 C.3   224  ALA224      0.0319
    132  N          3.7880   96.5840   24.2180 N.3   226  ALA226     -0.1231
    133  CA         3.2780   97.7300   23.4510 C.3   226  ALA226      0.1694
    134  C          4.1460   98.1120   22.2380 C.2   226  ALA226      0.2591
    135  O          3.7110   98.9110   21.3980 O.2   226  ALA226     -0.2718
    136  CB         3.0300   98.9350   24.3570 C.3   226  ALA226      0.0304
    137  N          5.3590   97.5540   22.1450 N.am  227  ILE227     -0.1980
    138  CA         6.2000   97.7110   20.9380 C.3   227  ILE227      0.1595
    139  C          5.4070   97.1750   19.7660 C.2   227  ILE227      0.2287
    140  O          5.4730   97.7180   18.6550 O.2   227  ILE227     -0.2864
    141  CB         7.5360   96.9280   21.0160 C.3   227  ILE227      0.0276
    142  CG1        8.4610   97.5480   22.0580 C.3   227  ILE227      0.0022
    143  CG2        8.2230   96.9130   19.6650 C.3   227  ILE227      0.0022
    144  CD1        9.6670   96.7290   22.3600 C.3   227  ILE227      0.0001
    145  N          7.0090   91.4100   18.5150 N.3   232  PHE232     -0.1227
    146  CA         8.4290   91.6490   18.6500 C.3   232  PHE232      0.1736
    147  C          8.9940   91.0450   19.9210 C.2   232  PHE232      0.2595
    148  O         10.0720   90.4340   19.8920 O.2   232  PHE232     -0.2718
    149  CB         8.6410   93.1720   18.6440 C.3   232  PHE232      0.0547
    150  CG        10.0700   93.6100   18.8290 C.ar  232  PHE232     -0.0202
    151  CD1       10.9050   93.7890   17.7250 C.ar  232  PHE232     -0.0042
    152  CD2       10.5670   93.8860   20.1040 C.ar  232  PHE232     -0.0042
    153  CE1       12.2240   94.2130   17.8820 C.ar  232  PHE232     -0.0003
    154  CE2       11.8900   94.3100   20.2780 C.ar  232  PHE232     -0.0003
    155  CZ        12.7170   94.4790   19.1590 C.ar  232  PHE232     -0.0000
    156  N          8.2810   91.2110   21.0310 N.am  233  ILE233     -0.1980
    157  CA         8.8000   90.7250   22.3060 C.3   233  ILE233      0.1595
    158  C          8.7530   89.2060   22.4830 C.2   233  ILE233      0.2287
    159  O          9.6850   88.6170   23.0250 O.2   233  ILE233     -0.2864
    160  CB         8.1920   91.4770   23.5380 C.3   233  ILE233      0.0276
    161  CG1        9.0380   91.2310   24.7950 C.3   233  ILE233      0.0022
    162  CG2        6.7110   91.1350   23.7670 C.3   233  ILE233      0.0022
    163  CD1       10.4810   91.7240   24.6860 C.3   233  ILE233      0.0001
    164  N         11.6650   88.1040   20.2640 N.3   236  ALA236     -0.1245
    165  CA        12.8760   88.4540   21.0580 C.3   236  ALA236      0.1562
    166  C         13.1960   87.4600   22.1910 C.2   236  ALA236      0.2260
    167  O         14.3670   87.1800   22.4580 O.2   236  ALA236     -0.2867
    168  CB        12.7580   89.8720   21.6280 C.3   236  ALA236      0.0290
@<TRIPOS>BOND
     1    45    44    2
     2    68    69    1
     3    71    70    2
     4    44    43    1
     5    70    69    1
     6    69    72    1
     7   151   153   ar
     8   151   150   ar
     9   153   155   ar
    10    42    43    1
    11    43    46    1
    12    72    73    1
    13   145   146    1
    14   149   146    1
    15   149   150    1
    16   146   147    1
    17   140   139    2
    18   150   152   ar
    19   155   154   ar
    20    36    35    2
    21    80    81    1
    22    35    34    1
    23    46    48    1
    24    46    47    1
    25   143   141    1
    26    73    75   ar
    27    73    74   ar
    28   139   138    1
    29   148   147    2
    30   147   156   am
    31    75    77   ar
    32   152   154   ar
    33   164   165    1
    34    37    34    1
    35    37    38    1
    36    82    81    1
    37    82    83    2
    38    81    84    1
    39    34    33    1
    40    74    76   ar
    41    84    85    1
    42    39    38    1
    43    39    40    1
    44   138   141    1
    45   138   137    1
    46   141   142    1
    47   156   157    1
    48   165   168    1
    49   165   166    1
    50    31    30    2
    51    77    78   ar
    52    33    30   am
    53   135   134    2
    54    30    29    1
    55    32    29    1
    56    40    41    1
    57    67    66    1
    58    65    66   ar
    59    65    63   ar
    60    85    86    1
    61    76    78   ar
    62   142   144    1
    63   137   134   am
    64   166   167    2
    65   134   133    1
    66    29    28    1
    67    78    79    1
    68   157   158    1
    69   157   160    1
    70    66    64   ar
    71   158   159    2
    72    63    61   ar
    73    88    89    1
    74    59    58    2
    75   133   132    1
    76   133   136    1
    77    86    87    1
    78   160   162    1
    79   160   161    1
    80   130   129    2
    81    64    62   ar
    82    28    22   am
    83    90    89    1
    84    90    91    2
    85    92    89    1
    86    92    93    1
    87    61    62   ar
    88    61    60    1
    89    58    57    1
    90    93    94    1
    91    23    22    2
    92    60    57    1
    93    22    21    1
    94   163   161    1
    95   129   128    1
    96    26    25    2
    97    57    56    1
    98   106   105    1
    99   106   107    1
   100   125   124    2
   101   105   102    1
   102   128   131    1
   103   128   127    1
   104    94    95    1
   105   107   101    1
   106    56    51   am
   107    21    20    1
   108    21    24    1
   109    54    53    1
   110    25    24    1
   111    25    27   am
   112    95    96    1
   113   124   127   am
   114   124   123    1
   115    20    17   am
   116   102   101    1
   117   102   103    1
   118   101    99   am
   119    51    52    2
   120    51    50    1
   121    19    16    1
   122    53    50    1
   123    53    55    1
   124   123   126    1
   125   123   122    1
   126    17    16    1
   127    17    18    2
   128    99    98    1
   129    99   100    2
   130    98    97    1
   131   103   108   am
   132   103   104    2
   133    50    49    1
   134    16    15    1
   135   108   109    1
   136   111   110    2
   137   119   118    2
   138   110   109    1
   139   109   112    1
   140   121   120    1
   141    15     9   am
   142   118   117    1
   143   116   117    1
   144   117   120    1
   145    10     9    2
   146     9     8    1
   147   112   113    1
   148    13    12    1
   149   113   114    1
   150   113   115    1
   151     8    11    1
   152     8     7    1
   153    11    12    1
   154     7     3   am
   155    12    14    1
   156     3     4    2
   157     3     2    1
   158     2     1    1
   159     2     5    1
   160     6     5    1
