@<TRIPOS>MOLECULE
tmp/1zxlA01.pdb
 185 178 0 0 0
SMALL
GASTEIGER

@<TRIPOS>ATOM
      1  N         52.9760   78.4870   41.5250 N.3    35  TRP35      -0.1241
      2  CA        53.9840   78.1370   40.5230 C.3    35  TRP35       0.1605
      3  C         55.0840   77.3870   41.2520 C.2    35  TRP35       0.2264
      4  O         55.5650   77.8670   42.2830 O.2    35  TRP35      -0.2867
      5  CB        54.5330   79.4310   39.9180 C.3    35  TRP35       0.0550
      6  CG        55.4060   79.2820   38.7380 C.ar   35  TRP35       0.0003
      7  CD1       55.2360   78.4280   37.6910 C.ar   35  TRP35       0.0946
      8  CD2       56.5650   80.0610   38.4350 C.ar   35  TRP35       0.0152
      9  NE1       56.2410   78.5960   36.7660 N.ar   35  TRP35      -0.2442
     10  CE2       57.0720   79.5950   37.1980 C.ar   35  TRP35       0.0810
     11  CE3       57.2460   81.0980   39.1010 C.ar   35  TRP35       0.0012
     12  CZ2       58.2260   80.1370   36.6050 C.ar   35  TRP35       0.0191
     13  CZ3       58.3960   81.6370   38.5190 C.ar   35  TRP35       0.0001
     14  CH2       58.8740   81.1550   37.2810 C.ar   35  TRP35       0.0015
     15  N         46.9380   84.4440   36.3530 N.3   120  LEU120     -0.1231
     16  CA        48.3500   84.2710   36.1010 C.3   120  LEU120      0.1693
     17  C         48.7680   84.7900   34.7380 C.2   120  LEU120      0.2592
     18  O         47.9720   84.7570   33.7940 O.2   120  LEU120     -0.2718
     19  CB        48.7180   82.7900   36.2450 C.3   120  LEU120      0.0284
     20  CG        48.4010   81.7630   35.1580 C.3   120  LEU120      0.0019
     21  CD1       49.6360   81.5030   34.3270 C.3   120  LEU120      0.0001
     22  CD2       47.9510   80.4880   35.8390 C.3   120  LEU120      0.0001
     23  N         50.0200   85.2560   34.6470 N.am  121  ALA121     -0.1966
     24  CA        50.6420   85.6410   33.3640 C.3   121  ALA121      0.1728
     25  C         52.1450   85.4220   33.2960 C.2   121  ALA121      0.2616
     26  O         52.8750   85.5970   34.2780 O.2   121  ALA121     -0.2715
     27  CB        50.3150   87.0810   32.9900 C.3   121  ALA121      0.0334
     28  N         52.5870   85.0400   32.1040 N.am  122  ASN122     -0.1958
     29  CA        54.0030   84.9650   31.7700 C.3   122  ASN122      0.1819
     30  C         54.2640   85.2840   30.2940 C.2   122  ASN122      0.2621
     31  O         53.5960   84.7750   29.3810 O.2   122  ASN122     -0.2715
     32  CB        54.5960   83.6010   32.1290 C.3   122  ASN122      0.1195
     33  CG        55.8870   83.7110   32.9230 C.2   122  ASN122      0.2630
     34  OD1       56.2120   82.8130   33.7030 O.2   122  ASN122     -0.2716
     35  ND2       56.6230   84.8020   32.7410 N.am  122  ASN122     -0.0877
     36  N         55.2330   86.1590   30.0910 N.am  123  ALA123     -0.1963
     37  CA        55.7460   86.4620   28.7930 C.3   123  ALA123      0.1728
     38  C         57.2500   86.6870   28.9620 C.2   123  ALA123      0.2616
     39  O         57.6970   87.7940   29.3410 O.2   123  ALA123     -0.2715
     40  CB        55.0640   87.6780   28.2620 C.3   123  ALA123      0.0334
     41  N         58.0160   85.6140   28.7310 N.am  124  LYS124     -0.1977
     42  CA        59.4810   85.6700   28.7070 C.3   124  LYS124      0.1596
     43  C         60.0530   86.9940   28.1930 C.2   124  LYS124      0.2287
     44  O         60.9980   87.5200   28.7780 O.2   124  LYS124     -0.2864
     45  CB        60.0640   84.5010   27.9110 C.3   124  LYS124      0.0298
     46  CG        60.3980   83.3140   28.7800 C.3   124  LYS124      0.0038
     47  CD        60.4120   81.9680   28.0260 C.3   124  LYS124      0.0206
     48  CE        60.8070   80.8210   28.9900 C.3   124  LYS124      0.1093
     49  NZ        60.0910   79.5450   28.7200 N.3   124  LYS124     -0.1314
     50  N         58.5030   90.1070   27.8100 N.3   126  VAL126     -0.1231
     51  CA        57.6780   91.3070   28.0400 C.3   126  VAL126      0.1692
     52  C         58.5340   92.5830   27.9210 C.2   126  VAL126      0.2591
     53  O         58.0460   93.6600   27.5670 O.2   126  VAL126     -0.2718
     54  CB        56.8780   91.2360   29.3830 C.3   126  VAL126      0.0266
     55  CG1       57.7930   91.3410   30.5830 C.3   126  VAL126      0.0020
     56  CG2       55.7980   92.3150   29.4240 C.3   126  VAL126      0.0020
     57  N         59.8210   92.4000   28.2080 N.am  127  GLN127     -0.1979
     58  CA        60.8820   93.3800   28.0690 C.3   127  GLN127      0.1601
     59  C         60.9270   94.0380   26.6820 C.2   127  GLN127      0.2287
     60  O         61.1930   95.2190   26.5770 O.2   127  GLN127     -0.2864
     61  CB        62.2230   92.6610   28.3640 C.3   127  GLN127      0.0394
     62  CG        63.2680   93.4660   29.1970 C.3   127  GLN127      0.0908
     63  CD        62.8280   93.7660   30.6600 C.2   127  GLN127      0.2608
     64  OE1       63.5620   93.4790   31.6170 O.2   127  GLN127     -0.2717
     65  NE2       61.6340   94.3510   30.8210 N.am  127  GLN127     -0.0878
     66  N         42.3870   90.2580   33.0050 N.3   170  THR170     -0.1203
     67  CA        42.9020   90.7260   31.7050 C.3   170  THR170      0.1994
     68  C         43.4150   92.1570   31.7870 C.2   170  THR170      0.2617
     69  O         43.3260   92.7840   32.8460 O.2   170  THR170     -0.2717
     70  CB        41.8430   90.5540   30.5620 C.3   170  THR170      0.1784
     71  OG1       42.4090   90.9470   29.3030 O.3   170  THR170     -0.2211
     72  CG2       40.5660   91.3580   30.8420 C.3   170  THR170      0.0376
     73  N         43.9750   92.6640   30.6910 N.am  171  TYR171     -0.1975
     74  CA        44.4130   94.0700   30.6420 C.3   171  TYR171      0.1639
     75  C         44.0280   94.7650   29.3260 C.2   171  TYR171      0.2290
     76  O         44.0260   94.1230   28.2540 O.2   171  TYR171     -0.2864
     77  CB        45.9270   94.1920   30.9250 C.3   171  TYR171      0.0560
     78  CG        46.4100   95.6180   31.0730 C.ar  171  TYR171     -0.0198
     79  CD1       45.7410   96.5180   31.8970 C.ar  171  TYR171     -0.0009
     80  CD2       47.5430   96.0730   30.3930 C.ar  171  TYR171     -0.0009
     81  CE1       46.1810   97.8290   32.0390 C.ar  171  TYR171      0.0417
     82  CE2       47.9910   97.4060   30.5340 C.ar  171  TYR171      0.0417
     83  CZ        47.2980   98.2650   31.3560 C.ar  171  TYR171      0.1957
     84  OH        47.6940   99.5710   31.5030 O.3   171  TYR171     -0.2866
     85  N         53.9710   97.3610   26.9430 N.3   181  TYR181     -0.1241
     86  CA        53.3080   96.0920   27.2730 C.3   181  TYR181      0.1605
     87  C         53.6760   95.0410   26.2300 C.2   181  TYR181      0.2264
     88  O         52.8340   94.5940   25.4630 O.2   181  TYR181     -0.2867
     89  CB        51.7850   96.2710   27.3800 C.3   181  TYR181      0.0534
     90  CG        51.0720   95.1560   28.1210 C.ar  181  TYR181     -0.0201
     91  CD1       51.1990   95.0160   29.5000 C.ar  181  TYR181     -0.0009
     92  CD2       50.2580   94.2370   27.4400 C.ar  181  TYR181     -0.0009
     93  CE1       50.5460   93.9800   30.1810 C.ar  181  TYR181      0.0417
     94  CE2       49.5950   93.2000   28.1180 C.ar  181  TYR181      0.0417
     95  CZ        49.7550   93.0870   29.4800 C.ar  181  TYR181      0.1957
     96  OH        49.1110   92.1010   30.1500 O.3   181  TYR181     -0.2866
     97  N         52.2540   89.8810   25.2970 N.3   185  MET185     -0.1245
     98  CA        51.2160   89.9240   26.3190 C.3   185  MET185      0.1570
     99  C         49.9270   90.4990   25.7170 C.2   185  MET185      0.2261
    100  O         48.8610   89.8960   25.8300 O.2   185  MET185     -0.2867
    101  CB        51.6410   90.7480   27.5340 C.3   185  MET185      0.0387
    102  CG        52.3130   89.9860   28.6720 C.3   185  MET185      0.0595
    103  SD        51.4620   88.5490   29.3600 S.3   185  MET185     -0.1393
    104  CE        49.7970   89.1290   29.4740 C.3   185  MET185      0.0692
    105  N         46.5260   88.6300   25.8700 N.3   189  LYS189     -0.1245
    106  CA        45.2990   89.0380   26.5310 C.3   189  LYS189      0.1561
    107  C         44.1130   89.1510   25.5600 C.2   189  LYS189      0.2260
    108  O         42.9830   88.7980   25.9200 O.2   189  LYS189     -0.2867
    109  CB        45.4960   90.3230   27.3140 C.3   189  LYS189      0.0271
    110  CG        46.4350   90.2080   28.4970 C.3   189  LYS189      0.0035
    111  CD        46.0050   89.1260   29.4340 C.3   189  LYS189      0.0206
    112  CE        46.5740   89.3440   30.8340 C.3   189  LYS189      0.1093
    113  NZ        46.4170   88.1350   31.7340 N.3   189  LYS189     -0.1314
    114  N         42.8000   97.6640   36.4570 N.3   217  GLY217     -0.1210
    115  CA        43.7010   98.8080   36.4570 C.3   217  GLY217      0.1940
    116  C         45.0830   98.3740   36.9160 C.2   217  GLY217      0.2454
    117  O         45.3000   97.1940   37.1750 O.2   217  GLY217     -0.2732
    118  N         46.0340   99.3180   37.0400 N.am  218  PRO218     -0.2717
    119  CA        47.3870   98.8730   37.3790 C.3   218  PRO218      0.1535
    120  C         47.5680   98.7610   38.8820 C.2   218  PRO218      0.2598
    121  O         47.0740   99.5870   39.6480 O.2   218  PRO218     -0.2715
    122  CB        48.2800   99.9830   36.8100 C.3   218  PRO218      0.0310
    123  CG        47.3320  101.0910   36.3460 C.3   218  PRO218      0.0237
    124  CD        45.9740  100.7820   36.9050 C.3   218  PRO218      0.0939
    125  N         48.2560   97.7180   39.3030 N.am  219  LEU219     -0.1978
    126  CA        48.5340   97.5020   40.7190 C.3   219  LEU219      0.1596
    127  C         50.0090   97.1940   40.8300 C.2   219  LEU219      0.2287
    128  O         50.5600   96.4590   39.9880 O.2   219  LEU219     -0.2864
    129  CB        47.7220   96.3210   41.2410 C.3   219  LEU219      0.0297
    130  CG        47.7740   96.0020   42.7330 C.3   219  LEU219      0.0022
    131  CD1       46.9520   96.9860   43.5880 C.3   219  LEU219      0.0001
    132  CD2       47.2830   94.5800   42.9350 C.3   219  LEU219      0.0001
    133  N         51.9540   95.1160   41.9320 N.3   221  SER221     -0.1202
    134  CA        52.2370   93.7330   42.3340 C.3   221  SER221      0.2020
    135  C         53.7050   93.3930   42.1120 C.2   221  SER221      0.2619
    136  O         54.4340   94.1340   41.4440 O.2   221  SER221     -0.2717
    137  CB        51.3520   92.7500   41.5660 C.3   221  SER221      0.2103
    138  OG        51.7330   92.6720   40.2070 O.3   221  SER221     -0.2182
    139  N         54.1330   92.2710   42.6770 N.am  222  ARG222     -0.1965
    140  CA        55.4990   91.7810   42.4760 C.3   222  ARG222      0.1729
    141  C         55.8300   91.6040   40.9720 C.2   222  ARG222      0.2616
    142  O         56.9520   91.8940   40.5460 O.2   222  ARG222     -0.2715
    143  CB        55.7360   90.4920   43.3150 C.3   222  ARG222      0.0348
    144  CG        57.1590   89.8570   43.2740 C.3   222  ARG222      0.0492
    145  CD        57.2250   88.7140   42.2250 C.3   222  ARG222      0.2205
    146  NE        58.5860   88.3640   41.7960 N.pl3 222  ARG222     -0.0865
    147  CZ        58.8940   87.8990   40.5840 C.cat 222  ARG222      0.5346
    148  NH1       57.9420   87.7380   39.6680 N.pl3 222  ARG222      0.1354
    149  NH2       60.1570   87.6020   40.2810 N.pl3 222  ARG222      0.1354
    150  N         54.8540   91.1590   40.1810 N.am  223  ALA223     -0.1963
    151  CA        55.0770   90.8950   38.7620 C.3   223  ALA223      0.1728
    152  C         55.1320   92.1440   37.8830 C.2   223  ALA223      0.2616
    153  O         55.8550   92.1750   36.8830 O.2   223  ALA223     -0.2715
    154  CB        54.0440   89.9250   38.2310 C.3   223  ALA223      0.0334
    155  N         54.3570   93.1650   38.2440 N.am  224  ALA224     -0.1977
    156  CA        54.3010   94.4210   37.4860 C.3   224  ALA224      0.1597
    157  C         55.6140   95.1900   37.6330 C.2   224  ALA224      0.2287
    158  O         56.0790   95.8310   36.6920 O.2   224  ALA224     -0.2864
    159  CB        53.1290   95.2540   37.9510 C.3   224  ALA224      0.0319
    160  N         58.4210   93.7580   37.8580 N.3   226  ALA226     -0.1231
    161  CA        59.3320   93.0580   36.9580 C.3   226  ALA226      0.1694
    162  C         59.3000   93.6260   35.5330 C.2   226  ALA226      0.2591
    163  O         60.3450   93.6630   34.8890 O.2   226  ALA226     -0.2718
    164  CB        59.0450   91.5500   36.9610 C.3   226  ALA226      0.0304
    165  N         58.1280   94.0830   35.0580 N.am  227  ILE227     -0.1980
    166  CA        57.9940   94.6490   33.6880 C.3   227  ILE227      0.1595
    167  C         59.0800   95.6740   33.3270 C.2   227  ILE227      0.2287
    168  O         59.9810   95.3590   32.5490 O.2   227  ILE227     -0.2864
    169  CB        56.6020   95.3070   33.3780 C.3   227  ILE227      0.0276
    170  CG1       55.4410   94.3330   33.5640 C.3   227  ILE227      0.0022
    171  CG2       56.5740   95.8660   31.9370 C.3   227  ILE227      0.0022
    172  CD1       54.0640   94.9170   33.1570 C.3   227  ILE227      0.0001
    173  N         55.0400  100.3310   35.4730 N.3   232  ILE232     -0.1245
    174  CA        53.9250  100.1540   36.3750 C.3   232  ILE232      0.1561
    175  C         53.7610  101.3760   37.2510 C.2   232  ILE232      0.2260
    176  O         52.6390  101.7920   37.5330 O.2   232  ILE232     -0.2867
    177  CB        54.0750   98.8720   37.2120 C.3   232  ILE232      0.0252
    178  CG1       52.8520   98.6660   38.0910 C.3   232  ILE232      0.0019
    179  CG2       55.3430   98.8950   38.0310 C.3   232  ILE232      0.0019
    180  CD1       51.6180   98.4160   37.2940 C.3   232  ILE232      0.0001
    181  N         52.0960  103.6670   34.9260 N.3   235  ALA235     -0.1245
    182  CA        50.7000  103.3030   34.6600 C.3   235  ALA235      0.1562
    183  C         49.8100  103.7620   35.7980 C.2   235  ALA235      0.2260
    184  O         48.7470  104.3320   35.5620 O.2   235  ALA235     -0.2867
    185  CB        50.5540  101.8380   34.4380 C.3   235  ALA235      0.0290
@<TRIPOS>BOND
     1    97    98    1
     2    88    87    2
     3   107   108    2
     4   107   106    1
     5    99   100    2
     6    99    98    1
     7   105   106    1
     8    87    86    1
     9    98   101    1
    10   106   109    1
    11    60    59    2
    12    59    58    1
    13    85    86    1
    14    86    89    1
    15   109   110    1
    16    89    90    1
    17    92    94   ar
    18    92    90   ar
    19   101   102    1
    20    53    52    2
    21    50    51    1
    22    45    42    1
    23    45    46    1
    24    52    51    1
    25    52    57   am
    26    47    46    1
    27    47    48    1
    28    51    54    1
    29    58    57    1
    30    58    61    1
    31    94    95   ar
    32    90    91   ar
    33    43    42    1
    34    43    44    2
    35    76    75    2
    36    40    37    1
    37    61    62    1
    38   110   111    1
    39   102   103    1
    40    42    41    1
    41    49    48    1
    42    41    38   am
    43    37    38    1
    44    37    36    1
    45    38    39    2
    46    62    63    1
    47    71    70    1
    48    75    74    1
    49   103   104    1
    50    31    30    2
    51    54    56    1
    52    54    55    1
    53   111   112    1
    54    95    96    1
    55    95    93   ar
    56    91    93   ar
    57    36    30   am
    58    30    29    1
    59    80    82   ar
    60    80    78   ar
    61    82    83   ar
    62    70    72    1
    63    70    67    1
    64    74    73    1
    65    74    77    1
    66    63    65   am
    67    63    64    2
    68    73    68   am
    69   112   113    1
    70    77    78    1
    71    78    79   ar
    72    83    84    1
    73    83    81   ar
    74    67    68    1
    75    67    66    1
    76    29    28    1
    77    29    32    1
    78    68    69    2
    79    79    81   ar
    80   171   169    1
    81    28    25   am
    82    32    33    1
    83   168   167    2
    84    35    33   am
    85    33    34    2
    86    27    24    1
    87   172   170    1
    88    25    24    1
    89    25    26    2
    90   167   166    1
    91    24    23    1
    92   169   170    1
    93   169   166    1
    94   166   165    1
    95    18    17    2
    96    21    20    1
    97   185   182    1
    98    23    17   am
    99   182   181    1
   100   182   183    1
   101    17    16    1
   102   163   162    2
   103   165   162   am
   104    20    22    1
   105    20    19    1
   106   173   174    1
   107   162   161    1
   108   184   183    2
   109    16    19    1
   110    16    15    1
   111   123   122    1
   112   123   124    1
   113   174   177    1
   114   174   175    1
   115   114   115    1
   116   115   116    1
   117    12    10   ar
   118    12    14   ar
   119   158   157    2
   120     9    10   ar
   121     9     7   ar
   122   122   119    1
   123   153   152    2
   124   124   118    1
   125   116   118   am
   126   116   117    2
   127   161   164    1
   128   161   160    1
   129   118   119    1
   130    10     8   ar
   131   177   179    1
   132   177   178    1
   133   175   176    2
   134    14    13   ar
   135   180   178    1
   136   119   120    1
   137   156   157    1
   138   156   159    1
   139   156   155    1
   140     7     6   ar
   141   152   155   am
   142   152   151    1
   143   154   151    1
   144     8     6   ar
   145     8    11   ar
   146    13    11   ar
   147     6     5    1
   148   151   150    1
   149   120   125   am
   150   120   121    2
   151   125   126    1
   152   148   147    1
   153     5     2    1
   154   128   127    2
   155   150   141   am
   156   138   137    1
   157   149   147    1
   158     2     3    1
   159     2     1    1
   160   142   141    2
   161   147   146    2
   162   126   127    1
   163   126   129    1
   164   141   140    1
   165   129   130    1
   166     3     4    2
   167   136   135    2
   168   137   134    1
   169   146   145    1
   170   133   134    1
   171   135   134    1
   172   135   139   am
   173   145   144    1
   174   140   139    1
   175   140   143    1
   176   130   132    1
   177   130   131    1
   178   144   143    1
