@<TRIPOS>MOLECULE
tmp/1zxmB00.pdb
 218 206 0 0 0
SMALL
GASTEIGER

@<TRIPOS>ATOM
      1  N         64.8800    6.0730   24.8840 N.3    59  GLU59      -0.1231
      2  CA        64.5570    7.2910   25.6330 C.3    59  GLU59       0.1699
      3  C         65.8040    8.1370   25.8720 C.2    59  GLU59       0.2592
      4  O         65.7840    9.3460   25.6840 O.2    59  GLU59      -0.2718
      5  CB        63.9150    6.9580   26.9900 C.3    59  GLU59       0.0402
      6  CG        62.5130    6.3460   26.9140 C.3    59  GLU59       0.1161
      7  CD        61.4410    7.3340   26.4560 C.2    59  GLU59       0.3649
      8  OE1       61.7610    8.5080   26.1640 O.co2  59  GLU59      -0.2457
      9  OE2       60.2610    6.9290   26.3920 O.co2  59  GLU59      -0.2457
     10  N         66.8910    7.5000   26.2820 N.am   60  ILE60      -0.1980
     11  CA        68.1170    8.2380   26.5400 C.3    60  ILE60       0.1595
     12  C         68.7160    8.7830   25.2500 C.2    60  ILE60       0.2287
     13  O         69.2350    9.8980   25.2210 O.2    60  ILE60      -0.2864
     14  CB        69.1480    7.3470   27.2660 C.3    60  ILE60       0.0276
     15  CG1       68.5500    6.8550   28.5890 C.3    60  ILE60       0.0022
     16  CG2       70.4330    8.1330   27.5490 C.3    60  ILE60       0.0022
     17  CD1       68.0080    7.9770   29.4690 C.3    60  ILE60       0.0001
     18  N         66.8560   11.8360   24.0360 N.3    63  ASN63      -0.1225
     19  CA        67.1680   12.9700   24.9130 C.3    63  ASN63       0.1785
     20  C         68.4370   13.6700   24.4440 C.2    63  ASN63       0.2597
     21  O         68.5400   14.8950   24.5010 O.2    63  ASN63      -0.2718
     22  CB        67.3640   12.5160   26.3680 C.3    63  ASN63       0.1169
     23  CG        66.0580   12.2920   27.0850 C.2    63  ASN63       0.2627
     24  OD1       65.0080   12.7110   26.6040 O.2    63  ASN63      -0.2716
     25  ND2       66.1140   11.6440   28.2500 N.am   63  ASN63      -0.0877
     26  N         69.4060   12.8840   23.9860 N.am   64  ALA64      -0.1979
     27  CA        70.6520   13.4510   23.4870 C.3    64  ALA64       0.1597
     28  C         70.3470   14.2370   22.2100 C.2    64  ALA64       0.2287
     29  O         70.7590   15.3910   22.0650 O.2    64  ALA64      -0.2864
     30  CB        71.6690   12.3300   23.2130 C.3    64  ALA64       0.0319
     31  N         67.6140   15.5480   21.3740 N.3    66  ASP66      -0.1225
     32  CA        66.8200   16.7230   21.7410 C.3    66  ASP66       0.1805
     33  C         67.6980   17.9270   22.0690 C.2    66  ASP66       0.2597
     34  O         67.3260   19.0760   21.7980 O.2    66  ASP66      -0.2718
     35  CB        65.9510   16.4520   22.9760 C.3    66  ASP66       0.1424
     36  CG        64.7940   15.5140   22.6950 C.2    66  ASP66       0.3668
     37  OD1       64.3480   15.4370   21.5270 O.co2  66  ASP66      -0.2456
     38  OD2       64.3190   14.8680   23.6600 O.co2  66  ASP66      -0.2456
     39  N         68.8580   17.6710   22.6650 N.am   67  ASN67      -0.1974
     40  CA        69.7420   18.7610   23.0600 C.3    67  ASN67       0.1688
     41  C         70.2550   19.5950   21.8860 C.2    67  ASN67       0.2292
     42  O         70.6670   20.7410   22.0690 O.2    67  ASN67      -0.2864
     43  CB        70.9120   18.2210   23.8820 C.3    67  ASN67       0.1181
     44  CG        71.4790   19.2620   24.8300 C.2    67  ASN67       0.2629
     45  OD1       70.7400   19.8660   25.6120 O.2    67  ASN67      -0.2716
     46  ND2       72.7920   19.4810   24.7650 N.am   67  ASN67      -0.0877
     47  N         67.9580   22.3680   21.6820 N.3    70  ARG70      -0.1245
     48  CA        68.1730   23.2610   22.8170 C.3    70  ARG70       0.1563
     49  C         69.4260   24.1110   22.6000 C.2    70  ARG70       0.2260
     50  O         69.4330   25.3110   22.8860 O.2    70  ARG70      -0.2867
     51  CB        68.3050   22.4470   24.1070 C.3    70  ARG70       0.0307
     52  CG        68.7790   23.2510   25.3250 C.3    70  ARG70       0.0489
     53  CD        68.4350   22.5220   26.6210 C.3    70  ARG70       0.2205
     54  NE        69.0390   23.1500   27.7950 N.pl3  70  ARG70      -0.0865
     55  CZ        70.2610   22.8750   28.2440 C.cat  70  ARG70       0.5346
     56  NH1       71.0150   21.9780   27.6200 N.pl3  70  ARG70       0.1354
     57  NH2       70.7290   23.5000   29.3160 N.pl3  70  ARG70       0.1354
     58  N         76.8160   13.3750   25.0110 N.3    92  ASN92      -0.1240
     59  CA        76.5460   14.4240   24.0370 C.3    92  ASN92       0.1653
     60  C         77.1650   15.7330   24.4910 C.2    92  ASN92       0.2266
     61  O         77.3050   15.9740   25.6920 O.2    92  ASN92      -0.2867
     62  CB        75.0370   14.6320   23.8290 C.3    92  ASN92       0.1155
     63  CG        74.3490   15.2020   25.0600 C.2    92  ASN92       0.2627
     64  OD1       73.8500   14.4630   25.9020 O.2    92  ASN92      -0.2716
     65  ND2       74.3370   16.5240   25.1720 N.am   92  ASN92      -0.0877
     66  N         75.2660   22.4970   25.3710 N.3    95  LYS95      -0.1245
     67  CA        74.9270   22.9010   26.7280 C.3    95  LYS95       0.1561
     68  C         74.5540   21.7920   27.7060 C.2    95  LYS95       0.2260
     69  O         73.7170   20.9280   27.4170 O.2    95  LYS95      -0.2867
     70  CB        73.8140   23.9440   26.6810 C.3    95  LYS95       0.0271
     71  CG        73.9200   24.9790   27.7780 C.3    95  LYS95       0.0035
     72  CD        73.0470   26.1840   27.4820 C.3    95  LYS95       0.0206
     73  CE        73.3000   27.2980   28.4840 C.3    95  LYS95       0.1093
     74  NZ        74.7120   27.7820   28.4360 N.3    95  LYS95      -0.1314
     75  N         73.1970   20.4570   31.5680 N.3    97  ILE97      -0.1245
     76  CA        72.0310   20.7820   32.3730 C.3    97  ILE97       0.1561
     77  C         72.4890   21.6880   33.5040 C.2    97  ILE97       0.2260
     78  O         73.5120   21.4270   34.1370 O.2    97  ILE97      -0.2867
     79  CB        71.4130   19.5100   32.9790 C.3    97  ILE97       0.0252
     80  CG1       70.9290   18.5950   31.8560 C.3    97  ILE97       0.0019
     81  CG2       70.2670   19.8760   33.9210 C.3    97  ILE97       0.0019
     82  CD1       70.6240   17.1980   32.3060 C.3    97  ILE97       0.0001
     83  N         65.3080   16.1920   37.5700 N.3   113  ILE113     -0.1231
     84  CA        64.8120   15.6880   36.2920 C.3   113  ILE113      0.1692
     85  C         65.2060   14.2780   35.8730 C.2   113  ILE113      0.2592
     86  O         64.7100   13.7780   34.8630 O.2   113  ILE113     -0.2718
     87  CB        65.1240   16.6840   35.1520 C.3   113  ILE113      0.0266
     88  CG1       66.6350   16.8290   34.9490 C.3   113  ILE113      0.0019
     89  CG2       64.5220   18.0420   35.4940 C.3   113  ILE113      0.0020
     90  CD1       66.9840   17.8290   33.8830 C.3   113  ILE113      0.0001
     91  N         66.0790   13.6310   36.6430 N.am  114  PHE114     -0.1976
     92  CA        66.4800   12.2550   36.3560 C.3   114  PHE114      0.1639
     93  C         66.0530   11.3070   37.4750 C.2   114  PHE114      0.2290
     94  O         66.0620   10.0910   37.2990 O.2   114  PHE114     -0.2864
     95  CB        68.0040   12.1580   36.1710 C.3   114  PHE114      0.0560
     96  CG        68.4770   12.5970   34.8170 C.ar  114  PHE114     -0.0200
     97  CD1       68.4180   11.7280   33.7300 C.ar  114  PHE114     -0.0042
     98  CD2       68.9280   13.8950   34.6140 C.ar  114  PHE114     -0.0042
     99  CE1       68.8000   12.1510   32.4600 C.ar  114  PHE114     -0.0003
    100  CE2       69.3100   14.3280   33.3450 C.ar  114  PHE114     -0.0003
    101  CZ        69.2450   13.4560   32.2690 C.ar  114  PHE114     -0.0000
    102  N         58.9820   15.1400   35.5640 N.3   119  THR119     -0.1203
    103  CA        59.8490   16.3070   35.5500 C.3   119  THR119      0.1994
    104  C         60.3020   16.5160   34.1140 C.2   119  THR119      0.2619
    105  O         60.7060   15.5700   33.4420 O.2   119  THR119     -0.2717
    106  CB        61.0670   16.1060   36.4510 C.3   119  THR119      0.1784
    107  OG1       61.5920   14.7890   36.2580 O.3   119  THR119     -0.2211
    108  CG2       60.6740   16.2970   37.9160 C.3   119  THR119      0.0376
    109  N         60.2390   17.7580   33.6500 N.am  120  SER120     -0.1937
    110  CA        60.6030   18.0550   32.2720 C.3   120  SER120      0.2055
    111  C         60.7810   19.5430   32.0250 C.2   120  SER120      0.2644
    112  O         60.3660   20.3640   32.8350 O.2   120  SER120     -0.2714
    113  CB        59.5010   17.5180   31.3480 C.3   120  SER120      0.2130
    114  OG        59.6610   17.9610   30.0150 O.3   120  SER120     -0.2179
    115  N         61.4080   19.8820   30.9020 N.am  121  SER121     -0.1935
    116  CA        61.5980   21.2740   30.5200 C.3   121  SER121      0.2055
    117  C         60.6680   21.5150   29.3390 C.2   121  SER121      0.2643
    118  O         60.6570   22.5910   28.7400 O.2   121  SER121     -0.2714
    119  CB        63.0540   21.5330   30.1100 C.3   121  SER121      0.2130
    120  OG        63.4430   20.7120   29.0180 O.3   121  SER121     -0.2179
    121  N         59.8670   20.5020   29.0230 N.am  122  ASN122     -0.1971
    122  CA        58.9360   20.5760   27.9020 C.3   122  ASN122      0.1688
    123  C         57.4600   20.6920   28.2820 C.2   122  ASN122      0.2292
    124  O         56.5920   20.3730   27.4710 O.2   122  ASN122     -0.2864
    125  CB        59.1190   19.3500   27.0060 C.3   122  ASN122      0.1181
    126  CG        60.4560   19.3480   26.2960 C.2   122  ASN122      0.2629
    127  OD1       60.7340   20.2310   25.4930 O.2   122  ASN122     -0.2716
    128  ND2       61.2880   18.3550   26.5870 N.am  122  ASN122     -0.0877
    129  N         61.1010   15.2770   23.2820 N.3   133  GLY133     -0.1210
    130  CA        60.6680   15.1850   24.6700 C.3   133  GLY133      0.1956
    131  C         59.3090   15.8160   24.8670 C.2   133  GLY133      0.2612
    132  O         59.0690   16.9390   24.4240 O.2   133  GLY133     -0.2717
    133  N         58.4310   15.1160   25.5730 N.am  134  ARG134     -0.1965
    134  CA        57.0870   15.6160   25.7670 C.3   134  ARG134      0.1729
    135  C         56.4650   15.4270   27.1580 C.2   134  ARG134      0.2616
    136  O         55.9430   16.3750   27.7450 O.2   134  ARG134     -0.2715
    137  CB        56.1910   14.9370   24.7330 C.3   134  ARG134      0.0348
    138  CG        55.0540   15.7650   24.2610 C.3   134  ARG134      0.0492
    139  CD        55.4520   16.6630   23.1060 C.3   134  ARG134      0.2205
    140  NE        54.3400   17.5570   22.8380 N.pl3 134  ARG134     -0.0865
    141  CZ        54.1950   18.7530   23.3930 C.cat 134  ARG134      0.5346
    142  NH1       55.1110   19.2180   24.2350 N.pl3 134  ARG134      0.1354
    143  NH2       53.1080   19.4640   23.1380 N.pl3 134  ARG134      0.1354
    144  N         56.5350   14.2170   27.6950 N.am  135  ASN135     -0.1958
    145  CA        55.8740   13.9190   28.9680 C.3   135  ASN135      0.1819
    146  C         56.6270   13.9500   30.2970 C.2   135  ASN135      0.2622
    147  O         55.9970   13.8980   31.3570 O.2   135  ASN135     -0.2715
    148  CB        55.1700   12.5680   28.8300 C.3   135  ASN135      0.1195
    149  CG        54.3840   12.4550   27.5320 C.2   135  ASN135      0.2630
    150  OD1       53.6410   13.3660   27.1640 O.2   135  ASN135     -0.2716
    151  ND2       54.5380   11.3290   26.8380 N.am  135  ASN135     -0.0877
    152  N         57.9550   14.0120   30.2600 N.am  136  GLY136     -0.1940
    153  CA        58.7130   14.0470   31.5010 C.3   136  GLY136      0.2014
    154  C         58.8220   12.7020   32.1980 C.2   136  GLY136      0.2639
    155  O         58.8790   12.6400   33.4320 O.2   136  GLY136     -0.2714
    156  N         58.8630   11.6320   31.4040 N.am  137  TYR137     -0.1959
    157  CA        58.9670   10.2530   31.8990 C.3   137  TYR137      0.1771
    158  C         60.2390    9.5320   31.4510 C.2   137  TYR137      0.2620
    159  O         60.8910    8.8470   32.2370 O.2   137  TYR137     -0.2715
    160  CB        57.7920    9.4120   31.3970 C.3   137  TYR137      0.0574
    161  CG        56.6200    9.3220   32.3360 C.ar  137  TYR137     -0.0198
    162  CD1       55.4590   10.0580   32.1070 C.ar  137  TYR137     -0.0009
    163  CD2       56.6620    8.4790   33.4450 C.ar  137  TYR137     -0.0009
    164  CE1       54.3620    9.9520   32.9590 C.ar  137  TYR137      0.0417
    165  CE2       55.5710    8.3670   34.3070 C.ar  137  TYR137      0.0417
    166  CZ        54.4280    9.1040   34.0570 C.ar  137  TYR137      0.1957
    167  OH        53.3530    8.9960   34.9030 O.3   137  TYR137     -0.2866
    168  N         60.5360    9.6670   30.1620 N.am  138  GLY138     -0.1940
    169  CA        61.6720    9.0140   29.5360 C.3   138  GLY138      0.2014
    170  C         62.8930    8.6190   30.3460 C.2   138  GLY138      0.2639
    171  O         63.2010    7.4330   30.4820 O.2   138  GLY138     -0.2714
    172  N         63.6000    9.6120   30.8660 N.am  139  ALA139     -0.1963
    173  CA        64.8200    9.3590   31.6260 C.3   139  ALA139      0.1728
    174  C         64.5560    8.5670   32.8960 C.2   139  ALA139      0.2616
    175  O         65.3430    7.6910   33.2670 O.2   139  ALA139     -0.2715
    176  CB        65.5030   10.6780   31.9650 C.3   139  ALA139      0.0334
    177  N         63.4520    8.8760   33.5670 N.am  140  LYS140     -0.1977
    178  CA        63.1160    8.1710   34.7940 C.3   140  LYS140      0.1596
    179  C         62.7650    6.7210   34.5220 C.2   140  LYS140      0.2287
    180  O         63.0460    5.8450   35.3420 O.2   140  LYS140     -0.2864
    181  CB        61.9620    8.8660   35.5200 C.3   140  LYS140      0.0298
    182  CG        62.4030   10.0110   36.4350 C.3   140  LYS140      0.0038
    183  CD        62.8690   11.2370   35.6610 C.3   140  LYS140      0.0206
    184  CE        61.7340   11.8200   34.8510 C.3   140  LYS140      0.1093
    185  NZ        62.1170   13.0720   34.1520 N.3   140  LYS140     -0.1314
    186  N         76.9730   15.9720   28.6670 N.3   187  THR187     -0.1218
    187  CA        76.1030   15.1740   29.5150 C.3   187  THR187      0.1862
    188  C         76.3520   13.7360   29.1060 C.2   187  THR187      0.2287
    189  O         76.4120   13.4220   27.9110 O.2   187  THR187     -0.2866
    190  CB        74.6090   15.4940   29.3000 C.3   187  THR187      0.1770
    191  OG1       74.3330   16.8250   29.7520 O.3   187  THR187     -0.2211
    192  CG2       73.7360   14.5050   30.0760 C.3   187  THR187      0.0375
    193  N         75.0660    9.7640   30.1430 N.3   189  ILE189     -0.1245
    194  CA        74.1780    8.8900   30.8960 C.3   189  ILE189      0.1561
    195  C         74.7020    7.4690   30.7110 C.2   189  ILE189      0.2260
    196  O         74.7670    6.9730   29.5900 O.2   189  ILE189     -0.2867
    197  CB        72.7230    8.9710   30.3560 C.3   189  ILE189      0.0252
    198  CG1       72.2680   10.4340   30.2680 C.3   189  ILE189      0.0019
    199  CG2       71.7980    8.1510   31.2360 C.3   189  ILE189      0.0019
    200  CD1       72.3870   11.2280   31.5600 C.3   189  ILE189      0.0001
    201  N         53.4430    6.7520   25.5120 N.3   343  GLN343     -0.1245
    202  CA        54.7660    7.2250   25.9120 C.3   343  GLN343      0.1566
    203  C         55.8310    6.7130   24.9470 C.2   343  GLN343      0.2260
    204  O         56.8580    7.3650   24.7510 O.2   343  GLN343     -0.2867
    205  CB        55.0930    6.7510   27.3350 C.3   343  GLN343      0.0367
    206  CG        56.5310    7.0490   27.8200 C.3   343  GLN343      0.0905
    207  CD        56.8780    8.5350   27.8520 C.2   343  GLN343      0.2608
    208  OE1       56.0350    9.3770   28.1560 O.2   343  GLN343     -0.2717
    209  NE2       58.1390    8.8560   27.5560 N.am  343  GLN343     -0.0878
    210  N         55.6790    6.6400   21.8700 N.3   345  LYS345     -0.1245
    211  CA        55.6550    7.5210   20.7070 C.3   345  LYS345      0.1561
    212  C         55.8880    6.8510   19.3580 C.2   345  LYS345      0.2260
    213  O         56.6820    7.3340   18.5490 O.2   345  LYS345     -0.2867
    214  CB        56.6890    8.6380   20.8930 C.3   345  LYS345      0.0271
    215  CG        56.5990    9.3580   22.2420 C.3   345  LYS345      0.0035
    216  CD        57.6790   10.4280   22.3600 C.3   345  LYS345      0.0206
    217  CE        57.9140   10.8320   23.8050 C.3   345  LYS345      0.1093
    218  NZ        59.2110   11.5690   23.9540 N.3   345  LYS345     -0.1314
@<TRIPOS>BOND
     1   213   212    2
     2   212   211    1
     3   211   214    1
     4   211   210    1
     5   214   215    1
     6    31    32    1
     7    37    36   ar
     8    47    48    1
     9    32    33    1
    10    32    35    1
    11    34    33    2
    12    41    42    2
    13    41    40    1
    14    29    28    2
    15    33    39   am
    16    28    27    1
    17   215   216    1
    18   216   217    1
    19    49    48    1
    20    49    50    2
    21    39    40    1
    22    36    35    1
    23    36    38   ar
    24    48    51    1
    25   140   139    1
    26   140   141    2
    27    40    43    1
    28   139   138    1
    29   143   141    1
    30    30    27    1
    31   129   130    1
    32   141   142    1
    33    27    26    1
    34   217   218    1
    35    62    59    1
    36    62    63    1
    37    43    44    1
    38    26    20   am
    39    18    19    1
    40    59    60    1
    41    59    58    1
    42    51    52    1
    43   138   137    1
    44   132   131    2
    45    20    21    2
    46    20    19    1
    47    60    61    2
    48   130   131    1
    49   137   134    1
    50   204   203    2
    51    46    44   am
    52    44    45    2
    53   131   133   am
    54     1     2    1
    55    19    22    1
    56   203   202    1
    57    63    65   am
    58    63    64    2
    59    13    12    2
    60    12    11    1
    61    52    53    1
    62    66    67    1
    63   127   126    2
    64   201   202    1
    65   133   134    1
    66     2     3    1
    67     2     5    1
    68     4     3    2
    69   134   135    1
    70     3    10   am
    71   202   205    1
    72     8     7   ar
    73    10    11    1
    74   126   128   am
    75   126   125    1
    76    22    23    1
    77     9     7   ar
    78     7     6    1
    79    11    14    1
    80    24    23    2
    81    53    54    1
    82    70    67    1
    83    70    71    1
    84    67    68    1
    85   151   149   am
    86     6     5    1
    87   125   122    1
    88    23    25   am
    89   135   144   am
    90   135   136    2
    91   150   149    2
    92    14    16    1
    93    14    15    1
    94   205   206    1
    95    69    68    2
    96   124   123    2
    97    72    71    1
    98    72    73    1
    99   149   148    1
   100   209   207   am
   101    56    55    1
   102   144   145    1
   103    54    55    2
   104   206   207    1
   105   207   208    2
   106   122   123    1
   107   122   121    1
   108   189   188    2
   109    55    57    1
   110    74    73    1
   111    15    17    1
   112   186   187    1
   113   118   117    2
   114   148   145    1
   115   145   146    1
   116   120   119    1
   117   121   117   am
   118   188   187    1
   119   190   187    1
   120   190   191    1
   121   190   192    1
   122   117   116    1
   123   169   168    1
   124   169   170    1
   125   196   195    2
   126   114   113    1
   127   119   116    1
   128   193   194    1
   129   168   158   am
   130   152   146   am
   131   152   153    1
   132   198   197    1
   133   198   200    1
   134   146   147    2
   135   170   171    2
   136   170   172   am
   137   197   194    1
   138   197   199    1
   139   116   115    1
   140   195   194    1
   141   172   173    1
   142   115   111   am
   143   113   110    1
   144   160   157    1
   145   160   161    1
   146   156   157    1
   147   156   154   am
   148   158   157    1
   149   158   159    2
   150   153   154    1
   151    75    76    1
   152   173   176    1
   153   173   174    1
   154    80    82    1
   155    80    79    1
   156   111   110    1
   157   111   112    2
   158   162   161   ar
   159   162   164   ar
   160   154   155    2
   161   101    99   ar
   162   101   100   ar
   163   110   109    1
   164   161   163   ar
   165    76    79    1
   166    76    77    1
   167    99    97   ar
   168   174   175    2
   169   174   177   am
   170   164   166   ar
   171    79    81    1
   172   100    98   ar
   173   105   104    2
   174   163   165   ar
   175    77    78    2
   176   177   178    1
   177   109   104   am
   178    97    96   ar
   179    90    88    1
   180   166   165   ar
   181   166   167    1
   182   104   103    1
   183   185   184    1
   184   179   178    1
   185   179   180    2
   186    98    96   ar
   187   178   181    1
   188    96    95    1
   189   184   183    1
   190    86    85    2
   191    88    87    1
   192    87    89    1
   193    87    84    1
   194   181   182    1
   195   103   102    1
   196   103   106    1
   197   183   182    1
   198    85    84    1
   199    85    91   am
   200    95    92    1
   201   107   106    1
   202    84    83    1
   203    92    91    1
   204    92    93    1
   205   106   108    1
   206    94    93    2
