@<TRIPOS>MOLECULE
tmp/1zxnC00.pdb
 200 190 0 0 0
SMALL
GASTEIGER

@<TRIPOS>ATOM
      1  N         25.4870   28.2670   17.1390 N.3    59  GLU59      -0.1231
      2  CA        26.2840   28.7540   18.2600 C.3    59  GLU59       0.1699
      3  C         27.2280   27.6720   18.8020 C.2    59  GLU59       0.2592
      4  O         28.3840   27.9470   19.1320 O.2    59  GLU59      -0.2718
      5  CB        25.3680   29.2650   19.3910 C.3    59  GLU59       0.0402
      6  CG        24.8010   30.6690   19.1660 C.3    59  GLU59       0.1161
      7  CD        25.8860   31.7130   18.8780 C.2    59  GLU59       0.3649
      8  OE1       26.4660   31.7060   17.7680 O.co2  59  GLU59      -0.2457
      9  OE2       26.1660   32.5430   19.7680 O.co2  59  GLU59      -0.2457
     10  N         26.7360   26.4410   18.8780 N.am   60  ILE60      -0.1980
     11  CA        27.5450   25.3470   19.3770 C.3    60  ILE60       0.1595
     12  C         28.5670   24.9270   18.3350 C.2    60  ILE60       0.2287
     13  O         29.6510   24.4620   18.6720 O.2    60  ILE60      -0.2864
     14  CB        26.6760   24.1220   19.7350 C.3    60  ILE60       0.0276
     15  CG1       25.6520   24.4980   20.8180 C.3    60  ILE60       0.0022
     16  CG2       27.5660   22.9690   20.1670 C.3    60  ILE60       0.0022
     17  CD1       26.2610   25.0050   22.1230 C.3    60  ILE60       0.0001
     18  N         31.3450   27.6450   18.2210 N.3    63  ASN63      -0.1225
     19  CA        32.1470   27.5180   19.4200 C.3    63  ASN63       0.1785
     20  C         33.2170   26.4620   19.1240 C.2    63  ASN63       0.2597
     21  O         34.4030   26.6870   19.3710 O.2    63  ASN63      -0.2718
     22  CB        31.2830   27.0750   20.6100 C.3    63  ASN63       0.1169
     23  CG        30.6200   28.2460   21.3350 C.2    63  ASN63       0.2627
     24  OD1       30.9580   29.4130   21.1050 O.2    63  ASN63      -0.2716
     25  ND2       29.6740   27.9360   22.2220 N.am   63  ASN63      -0.0877
     26  N         32.7950   25.3190   18.5790 N.am   64  ALA64      -0.1979
     27  CA        33.7300   24.2580   18.2500 C.3    64  ALA64       0.1597
     28  C         34.8160   24.7890   17.3300 C.2    64  ALA64       0.2287
     29  O         36.0000   24.5330   17.5450 O.2    64  ALA64      -0.2864
     30  CB        33.0110   23.0930   17.5870 C.3    64  ALA64       0.0319
     31  N         35.7640   27.8430   17.0840 N.3    66  ASP66      -0.1225
     32  CA        36.5560   28.8460   17.7990 C.3    66  ASP66       0.1805
     33  C         37.7290   28.2220   18.5580 C.2    66  ASP66       0.2597
     34  O         38.7510   28.8730   18.7840 O.2    66  ASP66      -0.2718
     35  CB        35.6950   29.6390   18.7950 C.3    66  ASP66       0.1424
     36  CG        34.6650   30.5210   18.1130 C.2    66  ASP66       0.3668
     37  OD1       34.8870   30.8860   16.9370 O.co2  66  ASP66      -0.2456
     38  OD2       33.6430   30.8580   18.7580 O.co2  66  ASP66      -0.2456
     39  N         37.5800   26.9570   18.9400 N.am   67  ASN67      -0.1974
     40  CA        38.6190   26.2780   19.6930 C.3    67  ASN67       0.1688
     41  C         39.9100   26.1370   18.9080 C.2    67  ASN67       0.2292
     42  O         40.9770   26.0470   19.4970 O.2    67  ASN67      -0.2864
     43  CB        38.1310   24.9020   20.1540 C.3    67  ASN67       0.1181
     44  CG        38.8390   24.4290   21.4100 C.2    67  ASN67       0.2629
     45  OD1       38.9870   25.1850   22.3660 O.2    67  ASN67      -0.2716
     46  ND2       39.2700   23.1790   21.4170 N.am   67  ASN67      -0.0877
     47  N         42.0090   29.0890   19.9280 N.3    70  ARG70      -0.1245
     48  CA        42.4990   28.9570   21.2870 C.3    70  ARG70       0.1563
     49  C         43.5930   27.8950   21.3040 C.2    70  ARG70       0.2260
     50  O         44.5650   28.0000   22.0510 O.2    70  ARG70      -0.2867
     51  CB        41.3630   28.5150   22.1980 C.3    70  ARG70       0.0307
     52  CG        41.7770   28.1890   23.6080 C.3    70  ARG70       0.0489
     53  CD        40.7480   27.2790   24.2180 C.3    70  ARG70       0.2205
     54  NE        41.0580   26.9260   25.5990 N.pl3  70  ARG70      -0.0865
     55  CZ        40.7490   25.7560   26.1490 C.cat  70  ARG70       0.5346
     56  NH1       40.1330   24.8300   25.4280 N.pl3  70  ARG70       0.1354
     57  NH2       41.0440   25.5220   27.4210 N.pl3  70  ARG70       0.1354
     58  N         34.6830   17.9710   19.3680 N.3    92  ASN92      -0.1240
     59  CA        35.9240   18.5130   18.8410 C.3    92  ASN92       0.1653
     60  C         37.0770   18.0850   19.7430 C.2    92  ASN92       0.2266
     61  O         36.8650   17.7210   20.8950 O.2    92  ASN92      -0.2867
     62  CB        35.8760   20.0470   18.7390 C.3    92  ASN92       0.1155
     63  CG        35.7680   20.7330   20.0940 C.2    92  ASN92       0.2627
     64  OD1       34.6790   20.8450   20.6660 O.2    92  ASN92      -0.2716
     65  ND2       36.9030   21.1900   20.6170 N.am   92  ASN92      -0.0877
     66  N         42.7120   21.4000   23.0600 N.3    95  LYS95      -0.1245
     67  CA        42.6920   21.6590   24.4960 C.3    95  LYS95       0.1561
     68  C         41.2670   21.7270   25.0320 C.2    95  LYS95       0.2260
     69  O         40.4040   22.3880   24.4580 O.2    95  LYS95      -0.2867
     70  CB        43.4340   22.9740   24.8100 C.3    95  LYS95       0.0271
     71  CG        43.6080   23.1240   26.2970 C.3    95  LYS95       0.0035
     72  CD        44.3860   24.4000   26.4620 C.3    95  LYS95       0.0206
     73  CE        44.4330   24.5390   27.9450 C.3    95  LYS95       0.1093
     74  NZ        45.7480   24.9880   28.3080 N.3    95  LYS95      -0.1314
     75  N         38.2810   22.2880   28.2300 N.3    97  ILE97      -0.1245
     76  CA        37.9410   23.3460   29.1560 C.3    97  ILE97       0.1561
     77  C         38.4930   22.9720   30.5330 C.2    97  ILE97       0.2260
     78  O         38.2370   21.8770   31.0340 O.2    97  ILE97      -0.2867
     79  CB        36.4050   23.5070   29.2300 C.3    97  ILE97       0.0252
     80  CG1       35.8540   23.7150   27.8190 C.3    97  ILE97       0.0019
     81  CG2       36.0260   24.6870   30.1150 C.3    97  ILE97       0.0019
     82  CD1       34.3700   23.4540   27.6960 C.3    97  ILE97       0.0001
     83  N         30.4380   28.5180   32.3980 N.3   113  ILE113     -0.1231
     84  CA        30.3140   29.0550   31.0580 C.3   113  ILE113      0.1692
     85  C         29.2320   28.3950   30.2040 C.2   113  ILE113      0.2592
     86  O         28.9240   28.8800   29.1160 O.2   113  ILE113     -0.2718
     87  CB        31.6780   29.0000   30.3220 C.3   113  ILE113      0.0266
     88  CG1       32.1640   27.5530   30.1970 C.3   113  ILE113      0.0019
     89  CG2       32.7120   29.8160   31.0830 C.3   113  ILE113      0.0020
     90  CD1       33.5540   27.4350   29.6210 C.3   113  ILE113      0.0001
     91  N         28.6430   27.3100   30.6980 N.am  114  PHE114     -0.1976
     92  CA        27.5830   26.6110   29.9670 C.3   114  PHE114      0.1639
     93  C         26.2430   26.6880   30.7000 C.2   114  PHE114      0.2290
     94  O         25.1830   26.4480   30.1150 O.2   114  PHE114     -0.2864
     95  CB        27.9590   25.1360   29.7570 C.3   114  PHE114      0.0560
     96  CG        28.8660   24.8990   28.5840 C.ar  114  PHE114     -0.0200
     97  CD1       28.3410   24.7860   27.2930 C.ar  114  PHE114     -0.0042
     98  CD2       30.2470   24.8090   28.7580 C.ar  114  PHE114     -0.0042
     99  CE1       29.1760   24.5900   26.2010 C.ar  114  PHE114     -0.0003
    100  CE2       31.0890   24.6130   27.6670 C.ar  114  PHE114     -0.0003
    101  CZ        30.5540   24.5040   26.3890 C.ar  114  PHE114     -0.0000
    102  N         28.6730   34.7060   30.5980 N.3   119  THR119     -0.1203
    103  CA        29.9810   34.1250   30.8910 C.3   119  THR119      0.1994
    104  C         30.7060   33.8860   29.5790 C.2   119  THR119      0.2619
    105  O         30.1540   33.2950   28.6460 O.2   119  THR119     -0.2717
    106  CB        29.8610   32.7970   31.6570 C.3   119  THR119      0.1784
    107  OG1       28.8080   32.0070   31.0910 O.3   119  THR119     -0.2211
    108  CG2       29.5730   33.0590   33.1250 C.3   119  THR119      0.0376
    109  N         31.9550   34.3370   29.5180 N.am  120  SER120     -0.1937
    110  CA        32.7470   34.2320   28.3090 C.3   120  SER120      0.2055
    111  C         34.2320   34.3760   28.6060 C.2   120  SER120      0.2644
    112  O         34.6260   34.8410   29.6760 O.2   120  SER120     -0.2714
    113  CB        32.3010   35.3430   27.3480 C.3   120  SER120      0.2130
    114  OG        33.1040   35.4260   26.1870 O.3   120  SER120     -0.2179
    115  N         35.0550   33.9650   27.6460 N.am  121  SER121     -0.1935
    116  CA        36.5010   34.0960   27.7600 C.3   121  SER121      0.2055
    117  C         36.8980   35.1040   26.6890 C.2   121  SER121      0.2643
    118  O         38.0750   35.3200   26.4180 O.2   121  SER121     -0.2714
    119  CB        37.1960   32.7660   27.4860 C.3   121  SER121      0.2130
    120  OG        37.0050   32.3610   26.1450 O.3   121  SER121     -0.2179
    121  N         35.8870   35.7130   26.0810 N.am  122  ASN122     -0.1971
    122  CA        36.0810   36.6960   25.0250 C.3   122  ASN122      0.1688
    123  C         35.5990   38.0790   25.4420 C.2   122  ASN122      0.2292
    124  O         35.2710   38.8960   24.5880 O.2   122  ASN122     -0.2864
    125  CB        35.3170   36.2660   23.7700 C.3   122  ASN122      0.1181
    126  CG        35.8580   34.9930   23.1690 C.2   122  ASN122      0.2629
    127  OD1       37.0120   34.9490   22.7370 O.2   122  ASN122     -0.2716
    128  ND2       35.0350   33.9430   23.1410 N.am  122  ASN122     -0.0877
    129  N         32.8940   34.0740   18.8790 N.3   130  GLY130     -0.1210
    130  CA        32.3680   34.4200   20.1890 C.3   130  GLY130      0.1956
    131  C         32.8130   35.7750   20.6960 C.2   130  GLY130      0.2612
    132  O         33.9760   36.1480   20.5320 O.2   130  GLY130     -0.2717
    133  N         31.8910   36.5050   21.3210 N.am  131  ARG131     -0.1965
    134  CA        32.1860   37.8340   21.8530 C.3   131  ARG131      0.1729
    135  C         31.1760   38.2730   22.9030 C.2   131  ARG131      0.2616
    136  O         31.4930   39.0550   23.7980 O.2   131  ARG131     -0.2715
    137  CB        32.1970   38.8460   20.7220 C.3   131  ARG131      0.0348
    138  CG        32.5030   40.2860   21.1560 C.3   131  ARG131      0.0492
    139  CD        32.6930   41.1870   19.9570 C.3   131  ARG131      0.2205
    140  NE        31.5300   41.2360   19.0870 N.pl3 131  ARG131     -0.0865
    141  CZ        30.5010   42.0080   19.2210 C.cat 131  ARG131      0.5346
    142  NH1       30.3410   42.8360   20.2820 N.pl3 131  ARG131      0.1354
    143  NH2       29.4980   41.9790   18.3940 N.pl3 131  ARG131      0.1354
    144  N         29.9590   37.7540   22.7800 N.am  132  ASN132     -0.1958
    145  CA        28.8510   38.0980   23.6610 C.3   132  ASN132      0.1819
    146  C         28.7380   37.3090   24.9680 C.2   132  ASN132      0.2622
    147  O         28.3970   37.8760   26.0040 O.2   132  ASN132     -0.2715
    148  CB        27.5440   37.9810   22.8650 C.3   132  ASN132      0.1195
    149  CG        27.4530   36.6650   22.0520 C.2   132  ASN132      0.2630
    150  OD1       26.7360   35.7290   22.4300 O.2   132  ASN132     -0.2716
    151  ND2       28.1920   36.5970   20.9370 N.am  132  ASN132     -0.0877
    152  N         29.0200   36.0110   24.9230 N.am  133  GLY133     -0.1940
    153  CA        28.8870   35.1910   26.1180 C.3   133  GLY133      0.2014
    154  C         27.4660   34.6590   26.3160 C.2   133  GLY133      0.2639
    155  O         27.0530   34.3730   27.4370 O.2   133  GLY133     -0.2714
    156  N         26.7190   34.5080   25.2260 N.am  134  TYR134     -0.1959
    157  CA        25.3400   34.0200   25.2810 C.3   134  TYR134      0.1771
    158  C         25.1590   32.6550   24.6390 C.2   134  TYR134      0.2620
    159  O         24.3860   31.8280   25.1330 O.2   134  TYR134     -0.2715
    160  CB        24.3960   34.9930   24.5640 C.3   134  TYR134      0.0574
    161  CG        23.7240   36.0230   25.4480 C.ar  134  TYR134     -0.0198
    162  CD1       23.9190   37.3860   25.2300 C.ar  134  TYR134     -0.0009
    163  CD2       22.8670   35.6340   26.4810 C.ar  134  TYR134     -0.0009
    164  CE1       23.2800   38.3400   26.0150 C.ar  134  TYR134      0.0417
    165  CE2       22.2150   36.5850   27.2790 C.ar  134  TYR134      0.0417
    166  CZ        22.4280   37.9360   27.0420 C.ar  134  TYR134      0.1957
    167  OH        21.8170   38.8890   27.8360 O.3   134  TYR134     -0.2866
    168  N         25.8650   32.4490   23.5280 N.am  135  GLY135     -0.1940
    169  CA        25.7860   31.2160   22.7600 C.3   135  GLY135      0.2014
    170  C         25.4200   29.9250   23.4610 C.2   135  GLY135      0.2639
    171  O         24.2880   29.4620   23.3830 O.2   135  GLY135     -0.2714
    172  N         26.3850   29.3340   24.1470 N.am  136  ALA136     -0.1963
    173  CA        26.1620   28.0730   24.8370 C.3   136  ALA136      0.1728
    174  C         24.8680   28.0380   25.6560 C.2   136  ALA136      0.2616
    175  O         24.1010   27.0650   25.5830 O.2   136  ALA136     -0.2715
    176  CB        27.3580   27.7570   25.7240 C.3   136  ALA136      0.0334
    177  N         24.6220   29.0930   26.4290 N.am  137  LYS137     -0.1977
    178  CA        23.4220   29.1380   27.2570 C.3   137  LYS137      0.1596
    179  C         22.1430   29.2330   26.4250 C.2   137  LYS137      0.2287
    180  O         21.1310   28.6070   26.7490 O.2   137  LYS137     -0.2864
    181  CB        23.4970   30.2990   28.2650 C.3   137  LYS137      0.0298
    182  CG        24.3600   30.0210   29.4950 C.3   137  LYS137      0.0038
    183  CD        25.8480   29.9600   29.1770 C.3   137  LYS137      0.0206
    184  CE        26.3320   31.2780   28.5930 C.3   137  LYS137      0.1093
    185  NZ        27.8100   31.3250   28.4610 N.3   137  LYS137     -0.1314
    186  N         35.7310   17.7980   23.7320 N.3   184  THR184     -0.1218
    187  CA        34.5500   18.4620   24.2710 C.3   184  THR184      0.1862
    188  C         33.3610   18.0080   23.4240 C.2   184  THR184      0.2287
    189  O         33.4230   18.0130   22.1920 O.2   184  THR184     -0.2866
    190  CB        34.6640   19.9890   24.1860 C.3   184  THR184      0.1770
    191  OG1       35.7480   20.4400   25.0020 O.3   184  THR184     -0.2211
    192  CG2       33.3790   20.6350   24.6590 C.3   184  THR184      0.0375
    193  N         29.1230   18.4410   23.0520 N.3   186  ILE186     -0.1245
    194  CA        27.8930   19.0560   23.4880 C.3   186  ILE186      0.1561
    195  C         26.7530   18.3270   22.8240 C.2   186  ILE186      0.2260
    196  O         26.5390   18.4490   21.6210 O.2   186  ILE186     -0.2867
    197  CB        27.8390   20.5710   23.1180 C.3   186  ILE186      0.0252
    198  CG1       28.6470   21.3970   24.1210 C.3   186  ILE186      0.0019
    199  CG2       26.4030   21.0630   23.1300 C.3   186  ILE186      0.0019
    200  CD1       30.1160   21.1400   24.0960 C.3   186  ILE186      0.0001
@<TRIPOS>BOND
     1    37    36   ar
     2    31    32    1
     3     1     2    1
     4    28    29    2
     5    28    27    1
     6    30    27    1
     7     8     7   ar
     8    32    33    1
     9    32    35    1
    10    36    38   ar
    11    36    35    1
    12    18    19    1
    13    27    26    1
    14     2     3    1
    15     2     5    1
    16    12    13    2
    17    12    11    1
    18   143   141    1
    19    33    34    2
    20    33    39   am
    21    26    20   am
    22    62    59    1
    23    62    63    1
    24     3    10   am
    25     3     4    2
    26    59    58    1
    27    59    60    1
    28     7     6    1
    29     7     9   ar
    30    10    11    1
    31   129   130    1
    32    41    42    2
    33    41    40    1
    34    39    40    1
    35   140   141    2
    36   140   139    1
    37    20    21    2
    38    20    19    1
    39     6     5    1
    40   141   142    1
    41    11    14    1
    42    19    22    1
    43    40    43    1
    44    14    16    1
    45    14    15    1
    46    60    61    2
    47    47    48    1
    48   139   138    1
    49    63    65   am
    50    63    64    2
    51    43    44    1
    52   130   131    1
    53   132   131    2
    54    22    23    1
    55   131   133   am
    56   137   138    1
    57   137   134    1
    58    15    17    1
    59   151   149   am
    60    24    23    2
    61    48    49    1
    62    48    51    1
    63    49    50    2
    64   133   134    1
    65    23    25   am
    66    44    46   am
    67    44    45    2
    68   196   195    2
    69   134   135    1
    70   149   150    2
    71   149   148    1
    72   189   188    2
    73    51    52    1
    74   127   126    2
    75   169   170    1
    76   169   168    1
    77   144   135   am
    78   144   145    1
    79   195   194    1
    80   148   145    1
    81   135   136    2
    82   193   194    1
    83    66    67    1
    84   197   199    1
    85   197   194    1
    86   197   198    1
    87   128   126   am
    88   126   125    1
    89   171   170    2
    90   188   187    1
    91   170   172   am
    92   168   158   am
    93    52    53    1
    94   145   146    1
    95   186   187    1
    96   125   122    1
    97   200   198    1
    98   172   173    1
    99   190   187    1
   100   190   192    1
   101   190   191    1
   102    53    54    1
   103    69    68    2
   104    67    70    1
   105    67    68    1
   106   160   157    1
   107   160   161    1
   108   124   123    2
   109   158   159    2
   110   158   157    1
   111    70    71    1
   112   173   174    1
   113   173   176    1
   114   152   146   am
   115   152   153    1
   116   146   147    2
   117   122   123    1
   118   122   121    1
   119   156   157    1
   120   156   154   am
   121   162   161   ar
   122   162   164   ar
   123    56    55    1
   124   161   163   ar
   125   175   174    2
   126    54    55    2
   127   174   177   am
   128   164   166   ar
   129   121   117   am
   130   153   154    1
   131   120   119    1
   132    55    57    1
   133   114   113    1
   134    99   101   ar
   135    99    97   ar
   136    71    72    1
   137   154   155    2
   138   101   100   ar
   139   118   117    2
   140   179   180    2
   141   179   178    1
   142   177   178    1
   143    72    73    1
   144   163   165   ar
   145   117   116    1
   146   166   165   ar
   147   166   167    1
   148   178   181    1
   149    97    96   ar
   150   113   110    1
   151   119   116    1
   152   115   116    1
   153   115   111   am
   154   100    98   ar
   155    82    80    1
   156    80    79    1
   157    73    74    1
   158    75    76    1
   159   181   182    1
   160   110   111    1
   161   110   109    1
   162   185   184    1
   163    96    98   ar
   164    96    95    1
   165   184   183    1
   166   111   112    2
   167   105   104    2
   168    86    85    2
   169    76    79    1
   170    76    77    1
   171   183   182    1
   172    79    81    1
   173   109   104   am
   174   104   103    1
   175    90    88    1
   176    95    92    1
   177    92    91    1
   178    92    93    1
   179    94    93    2
   180    88    87    1
   181    85    91   am
   182    85    84    1
   183    87    84    1
   184    87    89    1
   185    77    78    2
   186   102   103    1
   187   103   106    1
   188    84    83    1
   189   107   106    1
   190   106   108    1
