@<TRIPOS>MOLECULE
tmp/1zxvA00.pdb
 160 157 0 0 0
SMALL
GASTEIGER

@<TRIPOS>ATOM
      1  N         93.5670   31.9780  131.8090 N.3   302  ASP302     -0.1239
      2  CA        92.1740   31.6640  132.0790 C.3   302  ASP302      0.1674
      3  C         91.2590   32.2840  131.0270 C.2   302  ASP302      0.2266
      4  O         90.5020   31.5800  130.3570 O.2   302  ASP302     -0.2867
      5  CB        91.7990   32.1720  133.4730 C.3   302  ASP302      0.1410
      6  CG        90.3020   32.2740  133.6760 C.2   302  ASP302      0.3668
      7  OD1       89.6920   33.2260  133.1450 O.co2 302  ASP302     -0.2456
      8  OD2       89.7360   31.4000  134.3640 O.co2 302  ASP302     -0.2456
      9  N         86.1580   43.0630  130.5210 N.3   605  VAL605     -0.1231
     10  CA        85.6930   41.7520  130.9300 C.3   605  VAL605      0.1692
     11  C         84.3740   41.4080  130.2510 C.2   605  VAL605      0.2592
     12  O         83.4560   42.2420  130.1710 O.2   605  VAL605     -0.2718
     13  CB        85.4720   41.6510  132.4720 C.3   605  VAL605      0.0266
     14  CG1       84.7060   40.3680  132.8060 C.3   605  VAL605      0.0020
     15  CG2       86.8090   41.6370  133.1930 C.3   605  VAL605      0.0020
     16  N         84.2910   40.1840  129.7410 N.am  606  HIS606     -0.1962
     17  CA        83.0630   39.7240  129.1360 C.3   606  HIS606      0.1787
     18  C         82.7320   38.3730  129.7210 C.2   606  HIS606      0.2621
     19  O         83.5900   37.5030  129.8050 O.2   606  HIS606     -0.2715
     20  CB        83.1680   39.5880  127.6340 C.3   606  HIS606      0.0785
     21  CG        81.9820   38.9010  127.0440 C.ar  606  HIS606      0.0821
     22  ND1       80.6930   39.2190  127.4170 N.ar  606  HIS606     -0.2267
     23  CD2       81.8850   37.8530  126.1960 C.ar  606  HIS606      0.1154
     24  CE1       79.8520   38.3900  126.8280 C.ar  606  HIS606      0.1986
     25  NE2       80.5490   37.5510  126.0820 N.ar  606  HIS606     -0.2212
     26  N         81.4800   38.1930  130.1160 N.am  607  SER607     -0.1936
     27  CA        81.0550   36.9450  130.7190 C.3   607  SER607      0.2055
     28  C         79.5600   36.9720  130.9230 C.2   607  SER607      0.2643
     29  O         78.8870   37.8310  130.3730 O.2   607  SER607     -0.2714
     30  CB        81.7640   36.7750  132.0530 C.3   607  SER607      0.2130
     31  OG        82.1000   38.0490  132.5720 O.3   607  SER607     -0.2179
     32  N         79.0400   36.0400  131.7130 N.am  608  LYS608     -0.1963
     33  CA        77.6060   35.9760  131.9590 C.3   608  LYS608      0.1728
     34  C         77.1370   37.2160  132.7100 C.2   608  LYS608      0.2617
     35  O         76.1760   37.8850  132.3370 O.2   608  LYS608     -0.2715
     36  CB        77.2620   34.7350  132.7870 C.3   608  LYS608      0.0311
     37  CG        75.7640   34.5420  132.9610 C.3   608  LYS608      0.0038
     38  CD        75.1260   34.2460  131.6050 C.3   608  LYS608      0.0206
     39  CE        73.6370   34.2620  131.7020 C.3   608  LYS608      0.1093
     40  NZ        73.0200   33.8660  130.4120 N.3   608  LYS608     -0.1314
     41  N         77.8380   37.5230  133.7910 N.am  609  GLY609     -0.1940
     42  CA        77.4630   38.6620  134.5940 C.3   609  GLY609      0.2014
     43  C         78.7120   39.3880  135.0280 C.2   609  GLY609      0.2639
     44  O         79.8340   38.8900  134.8620 O.2   609  GLY609     -0.2714
     45  N         78.5280   40.5920  135.5800 N.am  610  LEU610     -0.1963
     46  CA        79.6460   41.3830  136.0330 C.3   610  LEU610      0.1728
     47  C         79.1260   42.5090  136.8770 C.2   610  LEU610      0.2616
     48  O         78.0870   43.1010  136.5780 O.2   610  LEU610     -0.2715
     49  CB        80.4020   41.9690  134.8480 C.3   610  LEU610      0.0311
     50  CG        81.7230   42.6660  135.1220 C.3   610  LEU610      0.0022
     51  CD1       82.7480   41.6150  135.5500 C.3   610  LEU610      0.0001
     52  CD2       82.1930   43.3490  133.8350 C.3   610  LEU610      0.0001
     53  N         79.8260   42.7650  137.9760 N.am  611  TYR611     -0.1960
     54  CA        79.4540   43.8740  138.8420 C.3   611  TYR611      0.1771
     55  C         80.5480   44.9240  138.7170 C.2   611  TYR611      0.2619
     56  O         81.7330   44.6070  138.7930 O.2   611  TYR611     -0.2715
     57  CB        79.3470   43.4350  140.2940 C.3   611  TYR611      0.0574
     58  CG        79.0130   44.5840  141.2110 C.ar  611  TYR611     -0.0198
     59  CD1       77.7850   45.2450  141.1150 C.ar  611  TYR611     -0.0009
     60  CD2       79.9550   45.0710  142.1190 C.ar  611  TYR611     -0.0009
     61  CE1       77.5020   46.3680  141.8940 C.ar  611  TYR611      0.0417
     62  CE2       79.6840   46.1920  142.9040 C.ar  611  TYR611      0.0417
     63  CZ        78.4540   46.8320  142.7810 C.ar  611  TYR611      0.1957
     64  OH        78.1650   47.9480  143.5200 O.3   611  TYR611     -0.2866
     65  N         80.1480   46.1720  138.5190 N.am  612  VAL612     -0.1964
     66  CA        81.1040   47.2620  138.3740 C.3   612  VAL612      0.1712
     67  C         80.9250   48.2340  139.5290 C.2   612  VAL612      0.2458
     68  O         79.9250   48.9550  139.5960 O.2   612  VAL612     -0.2730
     69  CB        80.8830   48.0270  137.0420 C.3   612  VAL612      0.0289
     70  CG1       81.8060   49.2330  136.9590 C.3   612  VAL612      0.0023
     71  CG2       81.1130   47.0930  135.8620 C.3   612  VAL612      0.0023
     72  N         81.8870   48.2610  140.4630 N.am  613  PRO613     -0.2716
     73  CA        81.8080   49.1630  141.6190 C.3   613  PRO613      0.1536
     74  C         81.7150   50.6400  141.2410 C.2   613  PRO613      0.2598
     75  O         80.8500   51.3560  141.7430 O.2   613  PRO613     -0.2715
     76  CB        83.0820   48.8380  142.3920 C.3   613  PRO613      0.0310
     77  CG        83.2970   47.3770  142.0800 C.3   613  PRO613      0.0237
     78  CD        83.0320   47.3390  140.5950 C.3   613  PRO613      0.0939
     79  N         82.5930   51.0910  140.3490 N.am  614  GLU614     -0.1978
     80  CA        82.5920   52.4950  139.9360 C.3   614  GLU614      0.1602
     81  C         81.2190   52.9750  139.4940 C.2   614  GLU614      0.2287
     82  O         80.8160   54.0810  139.8480 O.2   614  GLU614     -0.2864
     83  CB        83.5870   52.7460  138.8030 C.3   614  GLU614      0.0415
     84  CG        85.0220   52.4230  139.1360 C.3   614  GLU614      0.1163
     85  CD        85.3010   50.9290  139.1790 C.2   614  GLU614      0.3649
     86  OE1       86.4860   50.5650  139.3530 O.co2 614  GLU614     -0.2457
     87  OE2       84.3490   50.1210  139.0410 O.co2 614  GLU614     -0.2457
     88  N         79.3780   30.2570  133.4380 N.3   627  VAL627     -0.1245
     89  CA        80.2930   29.2010  133.8800 C.3   627  VAL627      0.1561
     90  C         79.5820   28.2720  134.8540 C.2   627  VAL627      0.2260
     91  O         79.6880   28.3960  136.0780 O.2   627  VAL627     -0.2867
     92  CB        81.5600   29.8040  134.5470 C.3   627  VAL627      0.0252
     93  CG1       81.1650   30.9140  135.5350 C.3   627  VAL627      0.0019
     94  CG2       82.3540   28.7030  135.2470 C.3   627  VAL627      0.0019
     95  N         76.4300   27.9140  135.8010 N.3   629  LEU629     -0.1245
     96  CA        75.5480   28.6250  136.7030 C.3   629  LEU629      0.1561
     97  C         74.2270   28.2300  136.0820 C.2   629  LEU629      0.2260
     98  O         73.8690   28.7130  135.0130 O.2   629  LEU629     -0.2867
     99  CB        75.7380   30.1390  136.6090 C.3   629  LEU629      0.0270
    100  CG        76.9450   30.7260  137.3450 C.3   629  LEU629      0.0019
    101  CD1       77.0790   32.2180  137.0570 C.3   629  LEU629      0.0001
    102  CD2       76.7820   30.4920  138.8340 C.3   629  LEU629      0.0001
    103  N         74.3180   36.0560  141.9300 N.3   638  HIS638     -0.1226
    104  CA        75.7400   35.9910  142.1960 C.3   638  HIS638      0.1752
    105  C         76.3040   37.4100  142.1560 C.2   638  HIS638      0.2595
    106  O         77.0710   37.8110  143.0320 O.2   638  HIS638     -0.2718
    107  CB        76.4410   35.1420  141.1360 C.3   638  HIS638      0.0759
    108  CG        77.9330   35.2240  141.1950 C.ar  638  HIS638      0.0818
    109  ND1       78.7070   34.2880  141.8450 N.ar  638  HIS638     -0.2268
    110  CD2       78.7950   36.1450  140.7010 C.ar  638  HIS638      0.1154
    111  CE1       79.9800   34.6260  141.7490 C.ar  638  HIS638      0.1986
    112  NE2       80.0610   35.7490  141.0600 N.ar  638  HIS638     -0.2212
    113  N         75.9240   38.1640  141.1270 N.am  639  GLU639     -0.1979
    114  CA        76.4040   39.5270  140.9660 C.3   639  GLU639      0.1602
    115  C         75.9350   40.4150  142.0900 C.2   639  GLU639      0.2287
    116  O         76.5850   41.4010  142.4190 O.2   639  GLU639     -0.2864
    117  CB        75.9250   40.1030  139.6430 C.3   639  GLU639      0.0415
    118  CG        76.2730   39.2350  138.4690 C.3   639  GLU639      0.1163
    119  CD        77.7500   38.9350  138.3850 C.2   639  GLU639      0.3649
    120  OE1       78.1020   37.9280  137.7360 O.co2 639  GLU639     -0.2457
    121  OE2       78.5480   39.7070  138.9540 O.co2 639  GLU639     -0.2457
    122  N         78.3990   40.5150  144.9580 N.3   642  HIS642     -0.1241
    123  CA        79.4080   41.5600  144.8580 C.3   642  HIS642      0.1621
    124  C         78.8060   42.8840  145.2920 C.2   642  HIS642      0.2264
    125  O         79.4650   43.6910  145.9440 O.2   642  HIS642     -0.2867
    126  CB        79.9130   41.6710  143.4250 C.3   642  HIS642      0.0745
    127  CG        80.5550   40.4210  142.9180 C.ar  642  HIS642      0.0817
    128  ND1       81.6960   39.8920  143.4780 N.ar  642  HIS642     -0.2268
    129  CD2       80.2160   39.5920  141.9050 C.ar  642  HIS642      0.1154
    130  CE1       82.0340   38.7910  142.8310 C.ar  642  HIS642      0.1986
    131  NE2       81.1510   38.5880  141.8730 N.ar  642  HIS642     -0.2212
    132  N         84.5670   27.8050  140.8220 N.3   680  TYR680     -0.1241
    133  CA        84.4900   29.1990  140.4550 C.3   680  TYR680      0.1605
    134  C         84.5940   30.0300  141.7270 C.2   680  TYR680      0.2264
    135  O         85.2400   31.0790  141.7450 O.2   680  TYR680     -0.2867
    136  CB        83.1720   29.4700  139.7330 C.3   680  TYR680      0.0534
    137  CG        82.9630   30.9200  139.3770 C.ar  680  TYR680     -0.0201
    138  CD1       83.9530   31.6490  138.7180 C.ar  680  TYR680     -0.0009
    139  CD2       81.7750   31.5670  139.7030 C.ar  680  TYR680     -0.0009
    140  CE1       83.7640   32.9910  138.3960 C.ar  680  TYR680      0.0417
    141  CE2       81.5760   32.9030  139.3850 C.ar  680  TYR680      0.0417
    142  CZ        82.5720   33.6070  138.7360 C.ar  680  TYR680      0.1957
    143  OH        82.3640   34.9290  138.4470 O.3   680  TYR680     -0.2866
    144  N         88.6910   33.3880  144.1030 N.3   684  ASN684     -0.1240
    145  CA        89.2270   34.3840  145.0240 C.3   684  ASN684      0.1653
    146  C         88.2000   34.8120  146.0640 C.2   684  ASN684      0.2266
    147  O         87.0700   34.3240  146.0820 O.2   684  ASN684     -0.2867
    148  CB        89.6980   35.6140  144.2610 C.3   684  ASN684      0.1155
    149  CG        88.5550   36.3590  143.6130 C.2   684  ASN684      0.2627
    150  OD1       87.5710   36.6960  144.2690 O.2   684  ASN684     -0.2716
    151  ND2       88.6800   36.6260  142.3210 N.am  684  ASN684     -0.0877
    152  N         84.7940   36.3690  144.8300 N.3   687  GLU687     -0.1245
    153  CA        84.0970   35.3470  144.0750 C.3   687  GLU687      0.1567
    154  C         83.5450   34.2960  145.0300 C.2   687  GLU687      0.2260
    155  O         82.3920   33.8800  144.9140 O.2   687  GLU687     -0.2867
    156  CB        85.0500   34.7160  143.0680 C.3   687  GLU687      0.0388
    157  CG        85.6080   35.7160  142.0710 C.3   687  GLU687      0.1160
    158  CD        84.5220   36.3810  141.2510 C.2   687  GLU687      0.3649
    159  OE1       83.7080   35.6420  140.6660 O.co2 687  GLU687     -0.2457
    160  OE2       84.4800   37.6290  141.1850 O.co2 687  GLU687     -0.2457
@<TRIPOS>BOND
     1    25    23   ar
     2    25    24   ar
     3    23    21   ar
     4    24    22   ar
     5    21    22   ar
     6    21    20    1
     7    20    17    1
     8    17    18    1
     9    17    16    1
    10    18    19    2
    11    18    26   am
    12    16    11   am
    13    26    27    1
    14    12    11    2
    15    11    10    1
    16     4     3    2
    17    29    28    2
    18    40    39    1
    19     9    10    1
    20    27    28    1
    21    27    30    1
    22    28    32   am
    23    10    13    1
    24     3     2    1
    25    38    39    1
    26    38    37    1
    27    32    33    1
    28     1     2    1
    29    33    34    1
    30    33    36    1
    31    30    31    1
    32     2     5    1
    33    35    34    2
    34    13    14    1
    35    13    15    1
    36    34    41   am
    37    36    37    1
    38     7     6   ar
    39    88    89    1
    40     5     6    1
    41     6     8   ar
    42    41    42    1
    43    52    50    1
    44    89    92    1
    45    89    90    1
    46    92    94    1
    47    92    93    1
    48    42    43    1
    49    49    50    1
    50    49    46    1
    51    90    91    2
    52    44    43    2
    53    98    97    2
    54    43    45   am
    55    50    51    1
    56    45    46    1
    57    95    96    1
    58    71    69    1
    59    46    47    1
    60    97    96    1
    61    48    47    2
    62    99    96    1
    63    99   100    1
    64    47    53   am
    65    70    69    1
    66    69    66    1
    67   101   100    1
    68   100   102    1
    69   120   119   ar
    70    53    54    1
    71    66    65    1
    72    66    67    1
    73   119   118    1
    74   119   121   ar
    75   140   138   ar
    76   140   142   ar
    77   143   142    1
    78   118   117    1
    79    65    55   am
    80    55    56    2
    81    55    54    1
    82   138   137   ar
    83   142   141   ar
    84    83    84    1
    85    83    80    1
    86    54    57    1
    87    87    85   ar
    88    84    85    1
    89    85    86   ar
    90   137   139   ar
    91   137   136    1
    92   141   139   ar
    93    81    82    2
    94    81    80    1
    95    67    68    2
    96    67    72   am
    97   117   114    1
    98   136   133    1
    99    80    79    1
   100    57    58    1
   101    79    74   am
   102   133   132    1
   103   133   134    1
   104    72    78    1
   105    72    73    1
   106    78    77    1
   107   159   158   ar
   108   110   112   ar
   109   110   108   ar
   110   114   113    1
   111   114   115    1
   112   112   111   ar
   113    59    58   ar
   114    59    61   ar
   115   113   105   am
   116   107   108    1
   117   107   104    1
   118   160   158   ar
   119   108   109   ar
   120    58    60   ar
   121    74    73    1
   122    74    75    2
   123   158   157    1
   124    73    76    1
   125   134   135    2
   126   111   109   ar
   127   131   129   ar
   128   131   130   ar
   129    61    63   ar
   130   129   127   ar
   131   103   104    1
   132   157   156    1
   133    77    76    1
   134   115   116    2
   135    60    62   ar
   136   105   104    1
   137   105   106    2
   138   151   149   am
   139    63    62   ar
   140    63    64    1
   141   130   128   ar
   142   127   126    1
   143   127   128   ar
   144   156   153    1
   145   126   123    1
   146   149   148    1
   147   149   150    2
   148   153   152    1
   149   153   154    1
   150   144   145    1
   151   148   145    1
   152   123   122    1
   153   123   124    1
   154   155   154    2
   155   145   146    1
   156   124   125    2
   157   146   147    2
