@<TRIPOS>MOLECULE
tmp/1zxvB00.pdb
 157 155 0 0 0
SMALL
GASTEIGER

@<TRIPOS>ATOM
      1  N         95.1710   -6.3890  119.2910 N.3   613  VAL613     -0.1231
      2  CA        95.5610   -4.9980  119.1120 C.3   613  VAL613      0.1692
      3  C         95.1750   -4.4890  117.7460 C.2   613  VAL613      0.2592
      4  O         95.2950   -5.2060  116.7510 O.2   613  VAL613     -0.2718
      5  CB        97.0800   -4.8110  119.2490 C.3   613  VAL613      0.0266
      6  CG1       97.4800   -3.4090  118.8020 C.3   613  VAL613      0.0020
      7  CG2       97.4930   -5.0570  120.6820 C.3   613  VAL613      0.0020
      8  N         94.6970   -3.2500  117.7100 N.am  614  HIS614     -0.1962
      9  CA        94.3450   -2.6200  116.4520 C.3   614  HIS614      0.1787
     10  C         94.9620   -1.2440  116.3970 C.2   614  HIS614      0.2621
     11  O         94.8430   -0.4720  117.3360 O.2   614  HIS614     -0.2715
     12  CB        92.8400   -2.4750  116.2630 C.3   614  HIS614      0.0785
     13  CG        92.4840   -1.7610  114.9990 C.ar  614  HIS614      0.0821
     14  ND1       92.8950   -2.2060  113.7580 N.ar  614  HIS614     -0.2267
     15  CD2       91.8180   -0.6030  114.7830 C.ar  614  HIS614      0.1154
     16  CE1       92.4980   -1.3500  112.8330 C.ar  614  HIS614      0.1986
     17  NE2       91.8430   -0.3680  113.4280 N.ar  614  HIS614     -0.2212
     18  N         95.6270   -0.9390  115.2940 N.am  615  SER615     -0.1936
     19  CA        96.2510    0.3630  115.1310 C.3   615  SER615      0.2055
     20  C         96.7950    0.4690  113.7290 C.2   615  SER615      0.2643
     21  O         96.6170   -0.4410  112.9300 O.2   615  SER615     -0.2714
     22  CB        97.3760    0.5630  116.1560 C.3   615  SER615      0.2130
     23  OG        98.2780   -0.5320  116.1350 O.3   615  SER615     -0.2179
     24  N         97.4540    1.5850  113.4440 N.am  616  LYS616     -0.1963
     25  CA        98.0200    1.8410  112.1350 C.3   616  LYS616      0.1728
     26  C         98.8790    0.6900  111.6730 C.2   616  LYS616      0.2617
     27  O         98.8000    0.2660  110.5160 O.2   616  LYS616     -0.2715
     28  CB        98.8600    3.1160  112.1540 C.3   616  LYS616      0.0311
     29  CG        99.3760    3.5090  110.7810 C.3   616  LYS616      0.0038
     30  CD        98.2190    3.6860  109.8230 C.3   616  LYS616      0.0206
     31  CE        98.6960    3.7710  108.3870 C.3   616  LYS616      0.1093
     32  NZ        97.5560    3.9930  107.4360 N.3   616  LYS616     -0.1314
     33  N         99.7060    0.1770  112.5690 N.am  617  GLY617     -0.1940
     34  CA       100.5610   -0.9210  112.1740 C.3   617  GLY617      0.2014
     35  C        100.8930   -1.8020  113.3490 C.2   617  GLY617      0.2639
     36  O        100.5050   -1.5080  114.4870 O.2   617  GLY617     -0.2714
     37  N        101.6130   -2.8840  113.0840 N.am  618  LEU618     -0.1963
     38  CA       101.9880   -3.7880  114.1470 C.3   618  LEU618      0.1728
     39  C        103.0260   -4.7710  113.6720 C.2   618  LEU618      0.2616
     40  O        103.0420   -5.1570  112.5030 O.2   618  LEU618     -0.2715
     41  CB       100.7650   -4.5550  114.6390 C.3   618  LEU618      0.0311
     42  CG       100.9630   -5.4900  115.8330 C.3   618  LEU618      0.0022
     43  CD1      101.0290   -4.6770  117.1110 C.3   618  LEU618      0.0001
     44  CD2       99.8070   -6.4720  115.9000 C.3   618  LEU618      0.0001
     45  N        103.9100   -5.1540  114.5910 N.am  619  TYR619     -0.1960
     46  CA       104.9420   -6.1410  114.3080 C.3   619  TYR619      0.1771
     47  C        104.6940   -7.2790  115.2640 C.2   619  TYR619      0.2619
     48  O        104.5640   -7.0680  116.4680 O.2   619  TYR619     -0.2715
     49  CB       106.3470   -5.6050  114.5520 C.3   619  TYR619      0.0574
     50  CG       107.3940   -6.6960  114.3930 C.ar  619  TYR619     -0.0198
     51  CD1      107.5810   -7.3310  113.1600 C.ar  619  TYR619     -0.0009
     52  CD2      108.1630   -7.1320  115.4800 C.ar  619  TYR619     -0.0009
     53  CE1      108.5010   -8.3720  113.0110 C.ar  619  TYR619      0.0417
     54  CE2      109.0870   -8.1750  115.3400 C.ar  619  TYR619      0.0417
     55  CZ       109.2470   -8.7890  114.1010 C.ar  619  TYR619      0.1957
     56  OH       110.1450   -9.8230  113.9440 O.3   619  TYR619     -0.2866
     57  N        104.6070   -8.4880  114.7330 N.am  620  VAL620     -0.1964
     58  CA       104.3750   -9.6470  115.5790 C.3   620  VAL620      0.1712
     59  C        105.6140  -10.5330  115.4820 C.2   620  VAL620      0.2458
     60  O        105.9030  -11.1140  114.4340 O.2   620  VAL620     -0.2730
     61  CB       103.1060  -10.4210  115.1300 C.3   620  VAL620      0.0289
     62  CG1      102.8400  -11.5800  116.0740 C.3   620  VAL620      0.0023
     63  CG2      101.9120   -9.4860  115.1040 C.3   620  VAL620      0.0023
     64  N        106.3810  -10.6210  116.5770 N.am  621  PRO621     -0.2716
     65  CA       107.5980  -11.4350  116.6090 C.3   621  PRO621      0.1536
     66  C        107.3210  -12.8890  116.2910 C.2   621  PRO621      0.2598
     67  O        107.9810  -13.4800  115.4450 O.2   621  PRO621     -0.2715
     68  CB       108.0980  -11.2440  118.0340 C.3   621  PRO621      0.0310
     69  CG       107.6390   -9.8620  118.3680 C.3   621  PRO621      0.0237
     70  CD       106.2260   -9.8670  117.8320 C.3   621  PRO621      0.0939
     71  N        106.3320  -13.4520  116.9770 N.am  622  GLU622     -0.1978
     72  CA       105.9460  -14.8510  116.8020 C.3   622  GLU622      0.1602
     73  C        105.7410  -15.1970  115.3410 C.2   622  GLU622      0.2287
     74  O        106.1290  -16.2650  114.8860 O.2   622  GLU622     -0.2864
     75  CB       104.6660  -15.1480  117.5790 C.3   622  GLU622      0.0415
     76  CG       104.7400  -14.8130  119.0660 C.3   622  GLU622      0.1163
     77  CD       104.8010  -13.3130  119.3480 C.2   622  GLU622      0.3649
     78  OE1      104.8480  -12.9430  120.5410 O.co2 622  GLU622     -0.2457
     79  OE2      104.8020  -12.5000  118.3960 O.co2 622  GLU622     -0.2457
     80  N         99.2270    7.7610  114.9120 N.3   635  VAL635     -0.1245
     81  CA        99.3760    8.8730  115.8300 C.3   635  VAL635      0.1561
     82  C        100.5850    9.7480  115.5260 C.2   635  VAL635      0.2260
     83  O        101.6640    9.6750  116.1310 O.2   635  VAL635     -0.2867
     84  CB        99.3610    8.3900  117.2900 C.3   635  VAL635      0.0252
     85  CG1       99.6250    9.5510  118.2270 C.3   635  VAL635      0.0019
     86  CG2       97.9900    7.7690  117.6080 C.3   635  VAL635      0.0019
     87  N        101.8090   10.5100  112.0150 N.3   637  LEU637     -0.1245
     88  CA       102.5750    9.9170  110.9500 C.3   637  LEU637      0.1561
     89  C        101.8120   10.4270  109.7310 C.2   637  LEU637      0.2260
     90  O        100.6530   10.0710  109.5170 O.2   637  LEU637     -0.2867
     91  CB       102.5350    8.3850  111.0540 C.3   637  LEU637      0.0270
     92  CG       103.2880    7.8500  112.2760 C.3   637  LEU637      0.0019
     93  CD1      103.2620    6.3310  112.3260 C.3   637  LEU637      0.0001
     94  CD2      104.7200    8.3560  112.2180 C.3   637  LEU637      0.0001
     95  N        108.3090    2.6220  110.7680 N.3   646  HIS646     -0.1226
     96  CA       108.2990    2.5180  112.2120 C.3   646  HIS646      0.1752
     97  C        108.2420    1.0320  112.5820 C.2   646  HIS646      0.2595
     98  O        109.0220    0.5600  113.4090 O.2   646  HIS646     -0.2718
     99  CB       107.0900    3.2630  112.7790 C.3   646  HIS646      0.0759
    100  CG       106.7840    2.9320  114.2070 C.ar  646  HIS646      0.0818
    101  ND1      106.5880    3.9000  115.1690 N.ar  646  HIS646     -0.2268
    102  CD2      106.6010    1.7430  114.8290 C.ar  646  HIS646      0.1154
    103  CE1      106.2970    3.3200  116.3210 C.ar  646  HIS646      0.1986
    104  NE2      106.2990    2.0130  116.1410 N.ar  646  HIS646     -0.2212
    105  N        107.3290    0.2930  111.9570 N.am  647  GLU647     -0.1979
    106  CA       107.1830   -1.1350  112.2440 C.3   647  GLU647      0.1602
    107  C        108.4500   -1.9200  111.8900 C.2   647  GLU647      0.2287
    108  O        108.8830   -2.7950  112.6370 O.2   647  GLU647     -0.2864
    109  CB       105.9750   -1.7090  111.4890 C.3   647  GLU647      0.0415
    110  CG       104.6770   -0.9630  111.7550 C.3   647  GLU647      0.1163
    111  CD       104.2810   -0.9700  113.2160 C.2   647  GLU647      0.3649
    112  OE1      103.5010   -0.0840  113.6210 O.co2 647  GLU647     -0.2457
    113  OE2      104.7390   -1.8620  113.9590 O.co2 647  GLU647     -0.2457
    114  N        110.6890   -2.1460  114.6440 N.3   650  HIS650     -0.1241
    115  CA       110.4890   -3.2280  115.5940 C.3   650  HIS650      0.1621
    116  C        111.1250   -4.4960  115.0680 C.2   650  HIS650      0.2264
    117  O        111.4940   -5.3620  115.8480 O.2   650  HIS650     -0.2867
    118  CB       109.0060   -3.4900  115.8240 C.3   650  HIS650      0.0745
    119  CG       108.3220   -2.4400  116.6360 C.ar  650  HIS650      0.0817
    120  ND1      108.6800   -2.1550  117.9360 N.ar  650  HIS650     -0.2268
    121  CD2      107.2760   -1.6340  116.3500 C.ar  650  HIS650      0.1154
    122  CE1      107.8800   -1.2200  118.4170 C.ar  650  HIS650      0.1986
    123  NE2      107.0200   -0.8870  117.4730 N.ar  650  HIS650     -0.2212
    124  N        114.7040   -8.7430  122.7140 N.3   667  LEU667     -0.1245
    125  CA       114.8250   -7.4830  122.0000 C.3   667  LEU667      0.1561
    126  C        116.0400   -6.6780  122.4110 C.2   667  LEU667      0.2260
    127  O        116.3270   -6.5240  123.5940 O.2   667  LEU667     -0.2867
    128  CB       113.5630   -6.6520  122.2040 C.3   667  LEU667      0.0270
    129  CG       112.2790   -7.3570  121.7830 C.3   667  LEU667      0.0019
    130  CD1      111.1130   -6.4080  121.9440 C.3   667  LEU667      0.0001
    131  CD2      112.3980   -7.8270  120.3380 C.3   667  LEU667      0.0001
    132  N        104.8450    9.6440  121.2830 N.3   688  TYR688     -0.1241
    133  CA       104.4750    8.2560  121.1200 C.3   688  TYR688      0.1605
    134  C        105.6730    7.3950  121.4660 C.2   688  TYR688      0.2264
    135  O        105.5330    6.2940  121.9930 O.2   688  TYR688     -0.2867
    136  CB       104.0330    7.9970  119.6830 C.3   688  TYR688      0.0534
    137  CG       103.7560    6.5450  119.3880 C.ar  688  TYR688     -0.0201
    138  CD1      103.0010    5.7630  120.2660 C.ar  688  TYR688     -0.0009
    139  CD2      104.2590    5.9450  118.2380 C.ar  688  TYR688     -0.0009
    140  CE1      102.7620    4.4150  120.0030 C.ar  688  TYR688      0.0417
    141  CE2      104.0220    4.6050  117.9650 C.ar  688  TYR688      0.0417
    142  CZ       103.2780    3.8470  118.8490 C.ar  688  TYR688      0.1957
    143  OH       103.0670    2.5190  118.5760 O.3   688  TYR688     -0.2866
    144  N        110.8840   -0.0660  123.3620 N.3   694  ALA694     -0.1231
    145  CA       110.5570   -0.5700  122.0320 C.3   694  ALA694      0.1694
    146  C        110.0200    0.5290  121.1270 C.2   694  ALA694      0.2591
    147  O        110.5030    0.7230  120.0070 O.2   694  ALA694     -0.2718
    148  CB       109.5420   -1.6960  122.1360 C.3   694  ALA694      0.0304
    149  N        109.0200    1.2490  121.6160 N.am  695  GLU695     -0.1979
    150  CA       108.4140    2.3120  120.8360 C.3   695  GLU695      0.1602
    151  C        109.3860    3.4590  120.5620 C.2   695  GLU695      0.2287
    152  O        109.3770    4.0550  119.4790 O.2   695  GLU695     -0.2864
    153  CB       107.1680    2.8210  121.5530 C.3   695  GLU695      0.0415
    154  CG       106.1410    1.7330  121.8010 C.3   695  GLU695      0.1163
    155  CD       105.7310    1.0250  120.5250 C.2   695  GLU695      0.3649
    156  OE1      105.3590    1.7240  119.5670 O.co2 695  GLU695     -0.2457
    157  OE2      105.7730   -0.2220  120.4760 O.co2 695  GLU695     -0.2457
@<TRIPOS>BOND
     1    32    31    1
     2    31    30    1
     3    90    89    2
     4    89    88    1
     5    30    29    1
     6    27    26    2
     7    95    96    1
     8    29    28    1
     9    88    91    1
    10    88    87    1
    11    91    92    1
    12   109   110    1
    13   109   106    1
    14    26    25    1
    15    26    33   am
    16   110   111    1
    17   107   106    1
    18   107   108    2
    19   105   106    1
    20   105    97   am
    21    25    28    1
    22    25    24    1
    23    34    33    1
    24    34    35    1
    25    96    97    1
    26    96    99    1
    27    94    92    1
    28    92    93    1
    29    40    39    2
    30    97    98    2
    31    99   100    1
    32    16    17   ar
    33    16    14   ar
    34    21    20    2
    35    53    51   ar
    36    53    55   ar
    37    37    35   am
    38    37    38    1
    39    51    50   ar
    40   111   112   ar
    41   111   113   ar
    42    35    36    2
    43    17    15   ar
    44    24    20   am
    45    39    38    1
    46    39    45   am
    47    20    19    1
    48    14    13   ar
    49    56    55    1
    50    55    54   ar
    51    38    41    1
    52   100   102   ar
    53   100   101   ar
    54    46    49    1
    55    46    45    1
    56    46    47    1
    57    50    49    1
    58    50    52   ar
    59    60    59    2
    60    41    42    1
    61   114   115    1
    62    57    47   am
    63    57    58    1
    64    15    13   ar
    65   102   104   ar
    66    74    73    2
    67    80    81    1
    68    13    12    1
    69   116   115    1
    70   116   117    2
    71    63    61    1
    72    61    58    1
    73    61    62    1
    74    19    18    1
    75    19    22    1
    76   101   103   ar
    77    47    48    2
    78    18    10   am
    79    54    52   ar
    80    73    72    1
    81    67    66    2
    82    59    58    1
    83    59    64   am
    84    82    81    1
    85    82    83    2
    86   115   118    1
    87   118   119    1
    88    81    84    1
    89    42    44    1
    90    42    43    1
    91    23    22    1
    92   104   103   ar
    93    12     9    1
    94    66    65    1
    95    66    71   am
    96   121   119   ar
    97   121   123   ar
    98    10     9    1
    99    10    11    2
   100     9     8    1
   101    64    65    1
   102    64    70    1
   103    65    68    1
   104   119   120   ar
   105     4     3    2
   106    72    71    1
   107    72    75    1
   108    84    86    1
   109    84    85    1
   110   123   122   ar
   111    75    76    1
   112     8     3   am
   113     3     2    1
   114    70    69    1
   115   120   122   ar
   116   141   139   ar
   117   141   142   ar
   118    68    69    1
   119   139   137   ar
   120    79    77   ar
   121   143   142    1
   122     6     5    1
   123   142   140   ar
   124    76    77    1
   125     2     5    1
   126     2     1    1
   127     5     7    1
   128    77    78   ar
   129   137   136    1
   130   137   138   ar
   131   152   151    2
   132   156   155   ar
   133   136   133    1
   134   140   138   ar
   135   147   146    2
   136   131   129    1
   137   157   155   ar
   138   155   154    1
   139   151   150    1
   140   150   153    1
   141   150   149    1
   142   133   132    1
   143   133   134    1
   144   146   149   am
   145   146   145    1
   146   134   135    2
   147   153   154    1
   148   129   130    1
   149   129   128    1
   150   125   128    1
   151   125   126    1
   152   125   124    1
   153   145   148    1
   154   145   144    1
   155   126   127    2
