@<TRIPOS>MOLECULE
tmp/1zy1B00.pdb
 152 148 0 0 0
SMALL
GASTEIGER

@<TRIPOS>ATOM
      1  N         33.5820  -12.1260  -36.7520 N.3    45  PRO45      -0.2102
      2  CA        34.0430  -13.5210  -36.7820 C.3    45  PRO45       0.1504
      3  C         32.9360  -14.5900  -36.8780 C.2    45  PRO45       0.2576
      4  O         32.4470  -15.0650  -35.8420 O.2    45  PRO45      -0.2718
      5  CB        34.8500  -13.6660  -35.4820 C.3    45  PRO45       0.0282
      6  CG        35.0570  -12.2500  -34.9740 C.3    45  PRO45       0.0208
      7  CD        33.8540  -11.4810  -35.4600 C.3    45  PRO45       0.0893
      8  N         32.5600  -14.9920  -38.0950 N.am   46  GLY46      -0.1943
      9  CA        31.5340  -16.0170  -38.2320 C.3    46  GLY46       0.2014
     10  C         31.9900  -17.2200  -39.0360 C.2    46  GLY46       0.2639
     11  O         32.8690  -17.0810  -39.8760 O.2    46  GLY46      -0.2714
     12  N         31.4150  -18.3990  -38.7900 N.am   47  VAL47      -0.1963
     13  CA        31.7930  -19.6010  -39.5500 C.3    47  VAL47       0.1727
     14  C         30.7590  -20.0020  -40.5990 C.2    47  VAL47       0.2617
     15  O         30.9760  -20.9420  -41.3620 O.2    47  VAL47      -0.2715
     16  CB        32.0090  -20.8350  -38.6530 C.3    47  VAL47       0.0290
     17  CG1       33.2280  -20.6390  -37.7880 C.3    47  VAL47       0.0023
     18  CG2       30.7700  -21.0880  -37.8230 C.3    47  VAL47       0.0023
     19  N         29.6380  -19.2930  -40.6290 N.am   48  GLY48      -0.1940
     20  CA        28.5930  -19.5830  -41.5940 C.3    48  GLY48       0.2014
     21  C         27.7800  -18.3240  -41.8070 C.2    48  GLY48       0.2638
     22  O         27.9370  -17.3620  -41.0640 O.2    48  GLY48      -0.2714
     23  N         26.9180  -18.3170  -42.8140 N.am   49  LEU49      -0.1977
     24  CA        26.1000  -17.1500  -43.0950 C.3    49  LEU49       0.1596
     25  C         25.1050  -17.4580  -44.2120 C.2    49  LEU49       0.2287
     26  O         25.4610  -18.0510  -45.2400 O.2    49  LEU49      -0.2864
     27  CB        26.9920  -15.9790  -43.5020 C.3    49  LEU49       0.0297
     28  CG        26.4980  -14.5390  -43.3060 C.3    49  LEU49       0.0022
     29  CD1       25.3220  -14.2450  -44.2180 C.3    49  LEU49       0.0001
     30  CD2       26.1220  -14.3450  -41.8520 C.3    49  LEU49       0.0001
     31  N         20.2970  -13.4120  -43.7560 N.3    53  GLN53      -0.1245
     32  CA        21.0010  -12.6590  -42.7250 C.3    53  GLN53       0.1566
     33  C         21.4750  -11.2720  -43.1770 C.2    53  GLN53       0.2260
     34  O         21.7650  -10.4070  -42.3480 O.2    53  GLN53      -0.2867
     35  CB        22.1490  -13.5000  -42.1520 C.3    53  GLN53       0.0367
     36  CG        21.6370  -14.6760  -41.3470 C.3    53  GLN53       0.0905
     37  CD        22.7230  -15.3980  -40.5720 C.2    53  GLN53       0.2608
     38  OE1       23.5920  -16.0490  -41.1590 O.2    53  GLN53      -0.2717
     39  NE2       22.6830  -15.2880  -39.2410 N.am   53  GLN53      -0.0878
     40  N         40.5070  -19.8060  -36.5570 N.3    69  TYR69      -0.1241
     41  CA        39.3340  -19.7300  -35.7110 C.3    69  TYR69       0.1605
     42  C         39.5170  -20.8020  -34.6490 C.2    69  TYR69       0.2264
     43  O         39.5680  -20.5160  -33.4500 O.2    69  TYR69      -0.2867
     44  CB        38.0720  -20.0650  -36.5190 C.3    69  TYR69       0.0534
     45  CG        37.5520  -18.9860  -37.4260 C.ar   69  TYR69      -0.0201
     46  CD1       36.9570  -19.1820  -38.4560 C.ar   69  TYR69      -0.0009
     47  CD2       37.6100  -17.8170  -37.1970 C.ar   69  TYR69      -0.0009
     48  CE1       36.4150  -18.1400  -39.2760 C.ar   69  TYR69       0.0417
     49  CE2       37.0410  -16.8160  -38.0490 C.ar   69  TYR69       0.0417
     50  CZ        36.4670  -17.0060  -39.0500 C.ar   69  TYR69       0.1957
     51  OH        35.9150  -16.0270  -39.8630 O.3    69  TYR69      -0.2866
     52  N         35.5770  -30.7740  -34.5980 N.3    83  ARG83      -0.1245
     53  CA        35.6860  -29.5730  -35.4000 C.3    83  ARG83       0.1563
     54  C         36.9950  -29.4160  -36.1460 C.2    83  ARG83       0.2260
     55  O         37.9780  -28.9190  -35.6070 O.2    83  ARG83      -0.2867
     56  CB        35.4830  -28.3370  -34.5570 C.3    83  ARG83       0.0307
     57  CG        35.5790  -27.0580  -35.3920 C.3    83  ARG83       0.0489
     58  CD        35.5450  -26.0180  -34.3870 C.3    83  ARG83       0.2205
     59  NE        35.9650  -24.6520  -34.5000 N.pl3  83  ARG83      -0.0865
     60  CZ        35.1860  -23.6260  -34.7980 C.cat  83  ARG83       0.5346
     61  NH1       33.9770  -23.7470  -35.0800 N.pl3  83  ARG83       0.1354
     62  NH2       35.5280  -22.4070  -34.6140 N.pl3  83  ARG83       0.1354
     63  N         25.6110  -23.6290  -29.7060 N.3   108  GLU108     -0.1231
     64  CA        25.5830  -22.9450  -30.9820 C.3   108  GLU108      0.1699
     65  C         25.2850  -21.4700  -30.7250 C.2   108  GLU108      0.2593
     66  O         24.7990  -21.0970  -29.6480 O.2   108  GLU108     -0.2718
     67  CB        24.4860  -23.5440  -31.8660 C.3   108  GLU108      0.0402
     68  CG        24.9980  -24.2150  -33.1060 C.3   108  GLU108      0.1161
     69  CD        23.8910  -24.7210  -34.0150 C.2   108  GLU108      0.3649
     70  OE1       23.0370  -23.9090  -34.4310 O.co2 108  GLU108     -0.2457
     71  OE2       23.8870  -25.9280  -34.3210 O.co2 108  GLU108     -0.2457
     72  N         25.5730  -20.6380  -31.7190 N.am  109  GLY109     -0.1942
     73  CA        25.3210  -19.2150  -31.5990 C.3   109  GLY109      0.2014
     74  C         25.0480  -18.6700  -32.9830 C.2   109  GLY109      0.2639
     75  O         25.6120  -19.1470  -33.9660 O.2   109  GLY109     -0.2714
     76  N         24.1820  -17.6740  -33.0750 N.am  110  CYS110     -0.1953
     77  CA        23.8580  -17.1000  -34.3630 C.3   110  CYS110      0.1843
     78  C         24.2450  -15.6400  -34.3530 C.2   110  CYS110      0.2625
     79  O         24.2740  -15.0030  -33.2980 O.2   110  CYS110     -0.2714
     80  CB        22.3740  -17.2430  -34.6420 C.3   110  CYS110      0.0997
     81  SG        21.8950  -16.7000  -36.2650 S.3   110  CYS110     -0.0797
     82  N         24.5460  -15.1130  -35.5320 N.am  111  LEU111     -0.1977
     83  CA        24.9600  -13.7240  -35.6630 C.3   111  LEU111      0.1596
     84  C         23.7550  -12.7940  -35.6190 C.2   111  LEU111      0.2287
     85  O         23.8910  -11.5800  -35.4820 O.2   111  LEU111     -0.2864
     86  CB        25.7420  -13.5640  -36.9680 C.3   111  LEU111      0.0297
     87  CG        26.8350  -14.6390  -37.0670 C.3   111  LEU111      0.0022
     88  CD1       27.4070  -14.6890  -38.4700 C.3   111  LEU111      0.0001
     89  CD2       27.9190  -14.3590  -36.0440 C.3   111  LEU111      0.0001
     90  N         24.2290  -17.9430  -26.5040 N.3   117  ARG117     -0.1245
     91  CA        24.5630  -19.2650  -27.0360 C.3   117  ARG117      0.1563
     92  C         23.5630  -20.2090  -26.3960 C.2   117  ARG117      0.2260
     93  O         22.9210  -19.8450  -25.3960 O.2   117  ARG117     -0.2867
     94  CB        25.9860  -19.6520  -26.6030 C.3   117  ARG117      0.0307
     95  CG        27.0790  -18.8380  -27.2780 C.3   117  ARG117      0.0489
     96  CD        27.1180  -19.1500  -28.7790 C.3   117  ARG117      0.2205
     97  NE        28.1900  -18.3670  -29.3800 N.pl3 117  ARG117     -0.0865
     98  CZ        28.2440  -17.0520  -29.5470 C.cat 117  ARG117      0.5346
     99  NH1       27.3270  -16.2030  -29.3140 N.pl3 117  ARG117      0.1354
    100  NH2       29.3750  -16.4840  -29.4840 N.pl3 117  ARG117      0.1354
    101  N         31.5740  -30.6290  -36.6290 N.3   145  TRP145     -0.1241
    102  CA        31.2300  -29.2270  -36.6150 C.3   145  TRP145      0.1605
    103  C         30.7830  -28.7100  -37.9710 C.2   145  TRP145      0.2264
    104  O         29.9380  -27.8170  -38.0420 O.2   145  TRP145     -0.2867
    105  CB        32.4110  -28.4050  -36.1240 C.3   145  TRP145      0.0550
    106  CG        31.9690  -27.1810  -35.4230 C.ar  145  TRP145      0.0003
    107  CD1       32.2430  -25.8820  -35.8020 C.ar  145  TRP145      0.0946
    108  CD2       31.2600  -27.0790  -34.2440 C.ar  145  TRP145      0.0152
    109  NE1       31.7180  -24.9820  -34.9160 N.ar  145  TRP145     -0.2442
    110  CE2       31.0310  -25.7440  -33.8770 C.ar  145  TRP145      0.0810
    111  CE3       30.6610  -28.0460  -33.3610 C.ar  145  TRP145      0.0012
    112  CZ2       30.3890  -25.2600  -32.7780 C.ar  145  TRP145      0.0191
    113  CZ3       29.9850  -27.6150  -32.2320 C.ar  145  TRP145      0.0001
    114  CH2       29.8300  -26.2370  -31.9570 C.ar  145  TRP145      0.0015
    115  N         27.2490  -29.4600  -38.5330 N.3   148  ARG148     -0.1231
    116  CA        26.4840  -28.5700  -37.6650 C.3   148  ARG148      0.1694
    117  C         26.2560  -27.2370  -38.3820 C.2   148  ARG148      0.2591
    118  O         25.1160  -26.7880  -38.5200 O.2   148  ARG148     -0.2718
    119  CB        27.2390  -28.3470  -36.3530 C.3   148  ARG148      0.0321
    120  CG        26.6700  -27.2550  -35.4780 C.3   148  ARG148      0.0489
    121  CD        27.0120  -27.4890  -34.0150 C.3   148  ARG148      0.2205
    122  NE        26.3240  -28.6650  -33.5070 N.pl3 148  ARG148     -0.0865
    123  CZ        25.5710  -28.6680  -32.4120 C.cat 148  ARG148      0.5346
    124  NH1       25.4220  -27.5480  -31.7140 N.pl3 148  ARG148      0.1354
    125  NH2       24.9580  -29.7810  -32.0190 N.pl3 148  ARG148      0.1354
    126  N         27.3390  -26.6230  -38.8640 N.am  149  ILE149     -0.1980
    127  CA        27.2370  -25.3460  -39.5600 C.3   149  ILE149      0.1595
    128  C         26.2930  -25.4280  -40.7420 C.2   149  ILE149      0.2287
    129  O         25.4220  -24.5780  -40.9050 O.2   149  ILE149     -0.2864
    130  CB        28.6090  -24.8490  -40.0410 C.3   149  ILE149      0.0276
    131  CG1       29.5860  -24.8030  -38.8600 C.3   149  ILE149      0.0022
    132  CG2       28.4610  -23.4620  -40.6570 C.3   149  ILE149      0.0022
    133  CD1       30.9940  -24.3490  -39.2030 C.3   149  ILE149      0.0001
    134  N         22.8580  -25.3360  -39.5570 N.3   152  HIS152     -0.1226
    135  CA        22.5460  -24.0040  -39.0650 C.3   152  HIS152      0.1752
    136  C         22.1310  -23.1050  -40.2090 C.2   152  HIS152      0.2595
    137  O         21.0070  -22.6100  -40.2420 O.2   152  HIS152     -0.2718
    138  CB        23.7610  -23.3910  -38.3920 C.3   152  HIS152      0.0759
    139  CG        23.4700  -22.0950  -37.6910 C.ar  152  HIS152      0.0818
    140  ND1       23.0360  -22.0490  -36.3820 N.ar  152  HIS152     -0.2268
    141  CD2       23.5530  -20.8180  -38.1170 C.ar  152  HIS152      0.1154
    142  CE1       22.8680  -20.7820  -36.0310 C.ar  152  HIS152      0.1986
    143  NE2       23.1720  -20.0150  -37.0560 N.ar  152  HIS152     -0.2212
    144  N         23.0510  -22.9080  -41.1520 N.am  153  GLU153     -0.1979
    145  CA        22.8210  -22.0470  -42.3170 C.3   153  GLU153      0.1602
    146  C         21.6050  -22.4670  -43.1320 C.2   153  GLU153      0.2287
    147  O         20.8370  -21.6230  -43.5880 O.2   153  GLU153     -0.2864
    148  CB        24.0510  -22.0350  -43.2260 C.3   153  GLU153      0.0415
    149  CG        25.3800  -21.8920  -42.4930 C.3   153  GLU153      0.1163
    150  CD        25.3410  -20.8600  -41.3700 C.2   153  GLU153      0.3649
    151  OE1       24.9180  -19.7080  -41.6110 O.co2 153  GLU153     -0.2457
    152  OE2       25.7420  -21.2080  -40.2420 O.co2 153  GLU153     -0.2457
@<TRIPOS>BOND
     1    26    25    2
     2    29    28    1
     3    25    24    1
     4    31    32    1
     5   147   146    2
     6    27    28    1
     7    27    24    1
     8    28    30    1
     9   148   149    1
    10   148   145    1
    11    33    32    1
    12    33    34    2
    13   146   145    1
    14    24    23    1
    15    23    21   am
    16    32    35    1
    17   149   150    1
    18   145   144    1
    19    35    36    1
    20    21    20    1
    21    21    22    2
    22   151   150   ar
    23    20    19    1
    24   150   152   ar
    25    15    14    2
    26    36    37    1
    27    38    37    2
    28   144   136   am
    29   129   128    2
    30   128   127    1
    31   132   130    1
    32    19    14   am
    33    14    13    1
    34    37    39   am
    35   137   136    2
    36   136   135    1
    37   130   127    1
    38   130   131    1
    39    11    10    2
    40    51    50    1
    41   127   126    1
    42   134   135    1
    43    13    12    1
    44    13    16    1
    45    48    50   ar
    46    48    46   ar
    47   133   131    1
    48   135   138    1
    49    50    49   ar
    50    10    12   am
    51    10     9    1
    52   126   117   am
    53    16    18    1
    54    16    17    1
    55   115   116    1
    56   118   117    2
    57    88    87    1
    58    46    45   ar
    59   138   139    1
    60   117   116    1
    61     9     8    1
    62   141   139   ar
    63   141   143   ar
    64     8     3   am
    65    49    47   ar
    66   104   103    2
    67   103   102    1
    68   139   140   ar
    69   116   119    1
    70    45    47   ar
    71    45    44    1
    72    87    86    1
    73    87    89    1
    74   143   142   ar
    75    86    83    1
    76     3     2    1
    77     3     4    2
    78     2     1    1
    79     2     5    1
    80     1     7    1
    81   101   102    1
    82   102   105    1
    83    40    41    1
    84    44    41    1
    85   140   142   ar
    86   119   120    1
    87    81    80    1
    88    54    55    2
    89    54    53    1
    90   105   106    1
    91   107   106   ar
    92   107   109   ar
    93    41    42    1
    94    83    84    1
    95    83    82    1
    96    84    85    2
    97    82    78   am
    98     5     6    1
    99   120   121    1
   100     7     6    1
   101   106   108   ar
   102    53    52    1
   103    53    56    1
   104    57    56    1
   105    57    58    1
   106    61    60    1
   107   109   110   ar
   108    60    62    1
   109    60    59    2
   110    42    43    2
   111    80    77    1
   112    59    58    1
   113    70    69   ar
   114    77    78    1
   115    77    76    1
   116    78    79    2
   117    71    69   ar
   118   108   110   ar
   119   108   111   ar
   120    69    68    1
   121   121   122    1
   122    75    74    2
   123   110   112   ar
   124   122   123    2
   125   111   113   ar
   126    68    67    1
   127    76    74   am
   128    74    73    1
   129   112   114   ar
   130   123   125    1
   131   123   124    1
   132   113   114   ar
   133    67    64    1
   134    72    73    1
   135    72    65   am
   136    64    65    1
   137    64    63    1
   138    65    66    2
   139    98   100    1
   140    98    97    2
   141    98    99    1
   142    97    96    1
   143    96    95    1
   144    95    94    1
   145    91    94    1
   146    91    90    1
   147    91    92    1
   148    92    93    2
