@<TRIPOS>MOLECULE
tmp/1zy7B00.pdb
 245 235 0 0 0
SMALL
GASTEIGER

@<TRIPOS>ATOM
      1  N         75.9210   57.0450   51.5950 N.3    82  ASN82      -0.1225
      2  CA        75.0200   57.7260   50.6700 C.3    82  ASN82       0.1785
      3  C         74.1300   58.7530   51.3400 C.2    82  ASN82       0.2597
      4  O         73.7310   59.7510   50.7280 O.2    82  ASN82      -0.2718
      5  CB        74.0850   56.7300   49.9890 C.3    82  ASN82       0.1169
      6  CG        74.7850   55.8470   49.0250 C.2    82  ASN82       0.2627
      7  OD1       75.6250   56.3070   48.2520 O.2    82  ASN82      -0.2716
      8  ND2       74.4330   54.5570   49.0320 N.am   82  ASN82      -0.0877
      9  N         73.7940   58.4930   52.6080 N.am   83  ASP83      -0.1974
     10  CA        72.6420   59.1390   53.2170 C.3    83  ASP83       0.1709
     11  C         72.9230   59.4140   54.6860 C.2    83  ASP83       0.2293
     12  O         73.0180   58.4790   55.5030 O.2    83  ASP83      -0.2864
     13  CB        71.3940   58.2510   53.0000 C.3    83  ASP83       0.1436
     14  CG        70.0990   58.8690   53.5030 C.2    83  ASP83       0.3671
     15  OD1       70.0770   59.9020   54.2480 O.co2  83  ASP83      -0.2456
     16  OD2       68.9900   58.3360   53.2190 O.co2  83  ASP83      -0.2456
     17  N         68.5990   57.7580   59.4800 N.3    88  ILE88      -0.1245
     18  CA        69.2670   56.7220   58.6830 C.3    88  ILE88       0.1561
     19  C         70.5540   56.3130   59.3980 C.2    88  ILE88       0.2260
     20  O         70.8750   55.1150   59.5790 O.2    88  ILE88      -0.2867
     21  CB        69.4940   57.2520   57.2330 C.3    88  ILE88       0.0252
     22  CG1       68.1540   57.7370   56.6190 C.3    88  ILE88       0.0019
     23  CG2       70.2450   56.2090   56.3710 C.3    88  ILE88       0.0019
     24  CD1       66.9880   56.7370   56.7750 C.3    88  ILE88       0.0001
     25  N         69.9900   54.1620   62.5310 N.3    91  ARG91      -0.1231
     26  CA        69.7810   52.7250   62.2530 C.3    91  ARG91       0.1694
     27  C         71.1210   52.0140   61.9850 C.2    91  ARG91       0.2591
     28  O         71.3870   50.9230   62.5100 O.2    91  ARG91      -0.2718
     29  CB        68.8260   52.4990   61.0730 C.3    91  ARG91       0.0321
     30  CG        68.5620   50.9800   60.8620 C.3    91  ARG91       0.0489
     31  CD        67.8630   50.6240   59.5540 C.3    91  ARG91       0.2205
     32  NE        68.7870   50.8390   58.4520 N.pl3  91  ARG91      -0.0865
     33  CZ        69.4620   49.8780   57.8380 C.cat  91  ARG91       0.5346
     34  NH1       69.2970   48.5960   58.1620 N.pl3  91  ARG91       0.1354
     35  NH2       70.2700   50.2030   56.8530 N.pl3  91  ARG91       0.1354
     36  N         71.9910   52.6440   61.1960 N.am   92  ARG92      -0.1980
     37  CA        73.2740   52.0160   60.8500 C.3    92  ARG92       0.1597
     38  C         74.0950   51.7870   62.1210 C.2    92  ARG92       0.2287
     39  O         74.7350   50.7450   62.2670 O.2    92  ARG92      -0.2864
     40  CB        74.0290   52.8600   59.8480 C.3    92  ARG92       0.0334
     41  CG        73.3170   53.0130   58.4910 C.3    92  ARG92       0.0492
     42  CD        74.1650   53.7920   57.4900 C.3    92  ARG92       0.2205
     43  NE        75.1980   52.9730   56.8650 N.pl3  92  ARG92      -0.0865
     44  CZ        75.0250   52.2360   55.7650 C.cat  92  ARG92       0.5346
     45  NH1       73.8250   52.1700   55.1740 N.pl3  92  ARG92       0.1354
     46  NH2       76.0590   51.5570   55.2500 N.pl3  92  ARG92       0.1354
     47  N         72.9780   48.7880   63.9260 N.3    95  LEU95      -0.1245
     48  CA        73.5410   47.5560   63.3480 C.3    95  LEU95       0.1561
     49  C         74.8400   47.1380   64.0380 C.2    95  LEU95       0.2260
     50  O         75.0380   45.9500   64.3160 O.2    95  LEU95      -0.2867
     51  CB        73.7420   47.6870   61.8370 C.3    95  LEU95       0.0270
     52  CG        72.4790   48.0260   61.0060 C.3    95  LEU95       0.0019
     53  CD1       72.7980   47.9150   59.5080 C.3    95  LEU95       0.0001
     54  CD2       71.2850   47.1180   61.3730 C.3    95  LEU95       0.0001
     55  N         68.0910   58.8390   46.0160 N.3   175  THR175     -0.1203
     56  CA        67.9820   58.1700   47.3210 C.3   175  THR175      0.1994
     57  C         66.5810   58.3860   47.8940 C.2   175  THR175      0.2617
     58  O         66.0380   59.4740   47.7900 O.2   175  THR175     -0.2717
     59  CB        69.0800   58.7330   48.2510 C.3   175  THR175      0.1784
     60  OG1       70.3410   58.2170   47.8080 O.3   175  THR175     -0.2211
     61  CG2       68.9510   58.2390   49.7070 C.3   175  THR175      0.0376
     62  N         65.9700   57.3410   48.4450 N.am  176  MET176     -0.1979
     63  CA        64.5840   57.4300   48.8960 C.3   176  MET176      0.1605
     64  C         64.4840   58.3020   50.1660 C.2   176  MET176      0.2287
     65  O         65.4490   58.3440   50.9620 O.2   176  MET176     -0.2864
     66  CB        64.0130   56.0260   49.1940 C.3   176  MET176      0.0413
     67  CG        64.0310   55.0680   47.9940 C.3   176  MET176      0.0598
     68  SD        63.2190   55.7770   46.5460 S.3   176  MET176     -0.1393
     69  CE        61.5550   55.8630   47.1000 C.3   176  MET176      0.0692
     70  N         61.9980   54.9600   53.7360 N.3   181  LYS181     -0.1245
     71  CA        62.9140   54.0280   54.3520 C.3   181  LYS181      0.1561
     72  C         62.3610   53.4670   55.6420 C.2   181  LYS181      0.2260
     73  O         62.5480   52.2720   55.9040 O.2   181  LYS181     -0.2867
     74  CB        64.2650   54.6770   54.5540 C.3   181  LYS181      0.0271
     75  CG        65.0190   54.8700   53.2310 C.3   181  LYS181      0.0035
     76  CD        66.4730   55.2770   53.4950 C.3   181  LYS181      0.0206
     77  CE        67.2460   55.4960   52.1830 C.3   181  LYS181      0.1093
     78  NZ        68.7600   55.6190   52.3460 N.3   181  LYS181     -0.1314
     79  N         59.7320   51.0010   54.9060 N.3   184  ARG184     -0.1231
     80  CA        60.4400   49.7930   54.5260 C.3   184  ARG184      0.1694
     81  C         60.8960   49.0120   55.7620 C.2   184  ARG184      0.2592
     82  O         60.7020   47.7830   55.8480 O.2   184  ARG184     -0.2718
     83  CB        61.6230   50.1690   53.6590 C.3   184  ARG184      0.0321
     84  CG        62.6180   49.0360   53.3840 C.3   184  ARG184      0.0489
     85  CD        63.8320   49.6110   52.7020 C.3   184  ARG184      0.2205
     86  NE        64.9530   48.7010   52.4390 N.pl3 184  ARG184     -0.0865
     87  CZ        65.4070   48.4440   51.2270 C.cat 184  ARG184      0.5346
     88  NH1       64.8300   49.0150   50.1610 N.pl3 184  ARG184      0.1354
     89  NH2       66.4560   47.6560   51.0740 N.pl3 184  ARG184      0.1354
     90  N         61.4730   49.7240   56.7410 N.am  185  TRP185     -0.1976
     91  CA        61.8770   49.0300   57.9930 C.3   185  TRP185      0.1640
     92  C         60.7250   48.4000   58.7510 C.2   185  TRP185      0.2290
     93  O         60.9210   47.3990   59.4790 O.2   185  TRP185     -0.2864
     94  CB        62.6250   49.9420   58.9380 C.3   185  TRP185      0.0576
     95  CG        63.7780   50.6860   58.3210 C.ar  185  TRP185      0.0006
     96  CD1       64.4870   50.3770   57.1750 C.ar  185  TRP185      0.0946
     97  CD2       64.3620   51.8720   58.8530 C.ar  185  TRP185      0.0152
     98  NE1       65.4550   51.3440   56.9540 N.ar  185  TRP185     -0.2442
     99  CE2       65.4110   52.2610   57.9750 C.ar  185  TRP185      0.0810
    100  CE3       64.1060   52.6600   60.0050 C.ar  185  TRP185      0.0012
    101  CZ2       66.2100   53.4020   58.2060 C.ar  185  TRP185      0.0191
    102  CZ3       64.9010   53.8070   60.2270 C.ar  185  TRP185      0.0001
    103  CH2       65.9300   54.1640   59.3240 C.ar  185  TRP185      0.0015
    104  N         68.4100   44.9170   58.2250 N.3   192  GLY192     -0.1210
    105  CA        69.0270   44.7020   56.9270 C.3   192  GLY192      0.1956
    106  C         69.0830   43.2410   56.4620 C.2   192  GLY192      0.2613
    107  O         68.7160   42.2940   57.1920 O.2   192  GLY192     -0.2717
    108  N         69.5550   43.0780   55.2260 N.am  193  SER193     -0.1938
    109  CA        69.5680   41.7530   54.5850 C.3   193  SER193      0.2055
    110  C         70.6570   40.8690   55.2340 C.2   193  SER193      0.2642
    111  O         70.4060   39.7030   55.6170 O.2   193  SER193     -0.2714
    112  CB        69.8320   41.9060   53.0880 C.3   193  SER193      0.2130
    113  OG        71.0320   42.6200   52.8370 O.3   193  SER193     -0.2179
    114  N         71.8460   41.4370   55.3960 N.am  194  LEU194     -0.1977
    115  CA        72.9700   40.6490   55.9240 C.3   194  LEU194      0.1596
    116  C         72.7050   40.0800   57.3190 C.2   194  LEU194      0.2287
    117  O         72.8720   38.8760   57.5490 O.2   194  LEU194     -0.2864
    118  CB        74.2680   41.4520   55.8970 C.3   194  LEU194      0.0297
    119  CG        74.8630   41.6950   54.4960 C.3   194  LEU194      0.0022
    120  CD1       76.1030   42.5520   54.5820 C.3   194  LEU194      0.0001
    121  CD2       75.1970   40.3540   53.7770 C.3   194  LEU194      0.0001
    122  N         79.2470   50.7420   54.1680 N.3   291  LYS291     -0.1245
    123  CA        79.0310   49.3510   53.6960 C.3   291  LYS291      0.1561
    124  C         80.1980   48.4180   54.0200 C.2   291  LYS291      0.2260
    125  O         80.0040   47.3140   54.5520 O.2   291  LYS291     -0.2867
    126  CB        78.8180   49.3300   52.1860 C.3   291  LYS291      0.0271
    127  CG        77.5400   50.0130   51.6970 C.3   291  LYS291      0.0035
    128  CD        77.4960   50.1430   50.1570 C.3   291  LYS291      0.0206
    129  CE        76.2070   50.8240   49.6750 C.3   291  LYS291      0.1093
    130  NZ        74.9950   49.9370   49.8560 N.3   291  LYS291     -0.1314
    131  N         80.5050   47.7200   57.7360 N.3   294  LEU294     -0.1245
    132  CA        79.4640   46.8210   58.2170 C.3   294  LEU294      0.1561
    133  C         79.7390   45.3920   57.7260 C.2   294  LEU294      0.2260
    134  O         79.5540   44.4220   58.4570 O.2   294  LEU294     -0.2867
    135  CB        78.0830   47.3070   57.7710 C.3   294  LEU294      0.0270
    136  CG        77.6670   48.6620   58.3560 C.3   294  LEU294      0.0019
    137  CD1       76.2770   49.0220   57.8100 C.3   294  LEU294      0.0001
    138  CD2       77.6740   48.5790   59.8830 C.3   294  LEU294      0.0001
    139  N         80.0430   41.5240   48.3760 N.3   320  TYR320     -0.1241
    140  CA        78.9670   42.1360   49.1760 C.3   320  TYR320      0.1605
    141  C         77.5640   41.9100   48.5950 C.2   320  TYR320      0.2264
    142  O         76.7050   41.3580   49.2720 O.2   320  TYR320     -0.2867
    143  CB        79.2420   43.6310   49.2950 C.3   320  TYR320      0.0534
    144  CG        78.4010   44.4190   50.2810 C.ar  320  TYR320     -0.0201
    145  CD1       78.4400   44.1160   51.6530 C.ar  320  TYR320     -0.0009
    146  CD2       77.6390   45.5270   49.8600 C.ar  320  TYR320     -0.0009
    147  CE1       77.7120   44.8710   52.5820 C.ar  320  TYR320      0.0417
    148  CE2       76.9110   46.3040   50.7950 C.ar  320  TYR320      0.0417
    149  CZ        76.9610   45.9630   52.1470 C.ar  320  TYR320      0.1957
    150  OH        76.2740   46.7110   53.0760 O.3   320  TYR320     -0.2866
    151  N         74.3410   39.6220   50.1890 N.3   324  LYS324     -0.1245
    152  CA        73.0120   40.1470   50.4620 C.3   324  LYS324      0.1561
    153  C         71.9410   39.2810   49.7950 C.2   324  LYS324      0.2260
    154  O         70.9050   38.9960   50.3940 O.2   324  LYS324     -0.2867
    155  CB        72.8940   41.5750   49.9570 C.3   324  LYS324      0.0271
    156  CG        73.6210   42.6370   50.7890 C.3   324  LYS324      0.0035
    157  CD        73.1950   43.9810   50.2070 C.3   324  LYS324      0.0206
    158  CE        73.4660   45.1180   51.1160 C.3   324  LYS324      0.1093
    159  NZ        73.1690   46.4300   50.4340 N.3   324  LYS324     -0.1314
    160  N         64.5140   37.7260   53.0810 N.3   330  TYR330     -0.1227
    161  CA        64.5290   39.1690   53.1490 C.3   330  TYR330      0.1736
    162  C         64.2520   39.7580   51.7730 C.2   330  TYR330      0.2595
    163  O         63.4530   40.6920   51.6460 O.2   330  TYR330     -0.2718
    164  CB        65.8710   39.6460   53.6750 C.3   330  TYR330      0.0548
    165  CG        66.0050   41.1560   53.8550 C.ar  330  TYR330     -0.0200
    166  CD1       65.7280   41.7590   55.0970 C.ar  330  TYR330     -0.0009
    167  CD2       66.4380   41.9710   52.8020 C.ar  330  TYR330     -0.0009
    168  CE1       65.9050   43.1440   55.2890 C.ar  330  TYR330      0.0417
    169  CE2       66.6070   43.3690   52.9710 C.ar  330  TYR330      0.0417
    170  CZ        66.3280   43.9360   54.2130 C.ar  330  TYR330      0.1957
    171  OH        66.5220   45.2970   54.3650 O.3   330  TYR330     -0.2866
    172  N         64.8930   39.1930   50.7530 N.am  331  GLN331     -0.1979
    173  CA        64.7440   39.6860   49.3760 C.3   331  GLN331      0.1601
    174  C         63.2860   39.5290   48.9310 C.2   331  GLN331      0.2287
    175  O         62.7040   40.4320   48.2720 O.2   331  GLN331     -0.2864
    176  CB        65.6940   38.9240   48.4320 C.3   331  GLN331      0.0394
    177  CG        67.1760   39.1100   48.7810 C.3   331  GLN331      0.0908
    178  CD        67.6570   40.5390   48.6330 C.2   331  GLN331      0.2608
    179  OE1       67.0330   41.3430   47.9160 O.2   331  GLN331     -0.2717
    180  NE2       68.7680   40.8670   49.2990 N.am  331  GLN331     -0.0878
    181  N         61.2990   42.2470   50.5670 N.3   334  LYS334     -0.1245
    182  CA        61.5550   43.4990   49.8400 C.3   334  LYS334      0.1561
    183  C         60.6790   43.5870   48.5850 C.2   334  LYS334      0.2260
    184  O         60.0940   44.6300   48.3020 O.2   334  LYS334     -0.2867
    185  CB        63.0340   43.5890   49.4520 C.3   334  LYS334      0.0271
    186  CG        63.5270   45.0260   49.3360 C.3   334  LYS334      0.0035
    187  CD        64.9150   45.2080   48.6280 C.3   334  LYS334      0.0206
    188  CE        65.9370   44.1520   48.9190 C.3   334  LYS334      0.1093
    189  NZ        66.9610   44.1560   47.7950 N.3   334  LYS334     -0.1314
    190  N         59.8890   52.1150   43.8700 N.3   349  TRP349     -0.1227
    191  CA        61.1490   52.2660   44.6150 C.3   349  TRP349      0.1737
    192  C         62.3270   52.4610   43.6730 C.2   349  TRP349      0.2595
    193  O         62.4240   51.8130   42.6210 O.2   349  TRP349     -0.2718
    194  CB        61.4230   51.0260   45.4590 C.3   349  TRP349      0.0564
    195  CG        62.3620   51.2840   46.6170 C.ar  349  TRP349      0.0003
    196  CD1       63.7200   51.2070   46.6010 C.ar  349  TRP349      0.0946
    197  CD2       61.9940   51.6940   47.9440 C.ar  349  TRP349      0.0152
    198  NE1       64.2340   51.5040   47.8480 N.ar  349  TRP349     -0.2442
    199  CE2       63.1980   51.7970   48.6980 C.ar  349  TRP349      0.0810
    200  CE3       60.7740   51.9480   48.5890 C.ar  349  TRP349      0.0012
    201  CZ2       63.2210   52.1870   50.0520 C.ar  349  TRP349      0.0191
    202  CZ3       60.7960   52.3280   49.9640 C.ar  349  TRP349      0.0001
    203  CH2       62.0200   52.4430   50.6710 C.ar  349  TRP349      0.0015
    204  N         63.2460   53.3480   44.0560 N.am  350  VAL350     -0.1966
    205  CA        64.4610   53.5670   43.2650 C.3   350  VAL350      0.1727
    206  C         65.6100   52.8520   43.9520 C.2   350  VAL350      0.2616
    207  O         65.9700   53.1850   45.1000 O.2   350  VAL350     -0.2715
    208  CB        64.8090   55.0690   43.1360 C.3   350  VAL350      0.0290
    209  CG1       66.0740   55.2790   42.2840 C.3   350  VAL350      0.0023
    210  CG2       63.6330   55.8320   42.5560 C.3   350  VAL350      0.0023
    211  N         66.1760   51.8820   43.2500 N.am  351  GLU351     -0.1963
    212  CA        67.3270   51.1500   43.7780 C.3   351  GLU351      0.1733
    213  C         68.5910   51.6420   43.0880 C.2   351  GLU351      0.2616
    214  O         68.5610   51.9590   41.8940 O.2   351  GLU351     -0.2715
    215  CB        67.1820   49.6650   43.5200 C.3   351  GLU351      0.0429
    216  CG        65.9060   48.9930   43.9920 C.3   351  GLU351      0.1163
    217  CD        65.9350   47.5190   43.6510 C.2   351  GLU351      0.3649
    218  OE1       65.2170   47.1090   42.7200 O.co2 351  GLU351     -0.2457
    219  OE2       66.7140   46.7710   44.2910 O.co2 351  GLU351     -0.2457
    220  N         69.7040   51.6820   43.8160 N.am  352  LYS352     -0.1977
    221  CA        71.0040   52.0630   43.2520 C.3   352  LYS352      0.1596
    222  C         71.4670   51.0140   42.2240 C.2   352  LYS352      0.2287
    223  O         71.0460   49.8480   42.3040 O.2   352  LYS352     -0.2864
    224  CB        72.0730   52.1830   44.3580 C.3   352  LYS352      0.0298
    225  CG        71.8170   53.2550   45.4540 C.3   352  LYS352      0.0038
    226  CD        71.7000   54.6630   44.8970 C.3   352  LYS352      0.0206
    227  CE        71.6340   55.7340   45.9850 C.3   352  LYS352      0.1093
    228  NZ        70.5210   55.5300   46.9940 N.3   352  LYS352     -0.1314
    229  N         77.3840   49.5370   42.9430 N.3   356  GLN356     -0.1231
    230  CA        77.6880   50.0750   44.2580 C.3   356  GLN356      0.1698
    231  C         77.9930   48.9820   45.2820 C.2   356  GLN356      0.2592
    232  O         78.7710   49.1920   46.2150 O.2   356  GLN356     -0.2718
    233  CB        76.5110   50.9020   44.7730 C.3   356  GLN356      0.0381
    234  CG        76.9700   52.0960   45.5580 C.3   356  GLN356      0.0905
    235  CD        75.8670   53.0990   45.8110 C.2   356  GLN356      0.2608
    236  OE1       75.7470   54.1130   45.1030 O.2   356  GLN356     -0.2717
    237  NE2       75.0710   52.8330   46.8100 N.am  356  GLN356     -0.0878
    238  N         77.3590   47.8200   45.1170 N.am  357  ASP357     -0.1974
    239  CA        77.5050   46.7250   46.0870 C.3   357  ASP357      0.1709
    240  C         78.4200   45.6140   45.5830 C.2   357  ASP357      0.2293
    241  O         78.6430   44.6150   46.2630 O.2   357  ASP357     -0.2864
    242  CB        76.1400   46.1450   46.4380 C.3   357  ASP357      0.1436
    243  CG        75.4040   46.9720   47.4840 C.2   357  ASP357      0.3671
    244  OD1       75.9670   47.9760   47.9480 O.co2 357  ASP357     -0.2456
    245  OD2       74.2690   46.6670   47.8850 O.co2 357  ASP357     -0.2456
@<TRIPOS>BOND
     1   214   213    2
     2   222   223    2
     3   222   221    1
     4   209   208    1
     5   210   208    1
     6   193   192    2
     7   218   217   ar
     8   229   230    1
     9   213   212    1
    10   213   220   am
    11   208   205    1
    12   211   212    1
    13   211   206   am
    14   221   220    1
    15   221   224    1
    16   205   206    1
    17   205   204    1
    18   215   212    1
    19   215   216    1
    20   217   216    1
    21   217   219   ar
    22   192   204   am
    23   192   191    1
    24   190   191    1
    25   206   207    2
    26   230   233    1
    27   230   231    1
    28   224   225    1
    29   191   194    1
    30   233   234    1
    31   226   225    1
    32   226   227    1
    33   236   235    2
    34   238   231   am
    35   238   239    1
    36   231   232    2
    37   194   195    1
    38   234   235    1
    39   240   239    1
    40   240   241    2
    41   235   237   am
    42   227   228    1
    43    55    56    1
    44   239   242    1
    45   242   243    1
    46    68    69    1
    47    68    67    1
    48   196   195   ar
    49   196   198   ar
    50   195   197   ar
    51    56    57    1
    52    56    59    1
    53   243   245   ar
    54   243   244   ar
    55    58    57    2
    56   189   188    1
    57    60    59    1
    58   198   199   ar
    59    57    62   am
    60   179   178    2
    61   197   200   ar
    62   197   199   ar
    63    67    66    1
    64    59    61    1
    65     7     6    2
    66   175   174    2
    67   184   183    2
    68   139   140    1
    69   176   177    1
    70   176   173    1
    71    62    63    1
    72   183   182    1
    73   200   202   ar
    74   141   140    1
    75   141   142    2
    76   187   188    1
    77   187   186    1
    78   178   177    1
    79   178   180   am
    80   199   201   ar
    81    63    66    1
    82    63    64    1
    83   174   173    1
    84     6     8   am
    85     6     5    1
    86   140   143    1
    87   143   144    1
    88   186   185    1
    89   173   172    1
    90   185   182    1
    91   129   130    1
    92   129   128    1
    93   153   154    2
    94   153   152    1
    95   182   181    1
    96   146   144   ar
    97   146   148   ar
    98   155   152    1
    99   155   156    1
   100   202   203   ar
   101     5     2    1
   102   201   203   ar
   103   128   127    1
   104    88    87    1
   105    64    65    2
   106   151   152    1
   107   157   156    1
   108   157   158    1
   109   144   145   ar
   110   159   158    1
   111     2     3    1
   112     2     1    1
   113     4     3    2
   114   172   162   am
   115   148   149   ar
   116    89    87    1
   117    87    86    2
   118     3     9   am
   119   163   162    2
   120   145   147   ar
   121   127   126    1
   122   162   161    1
   123   149   147   ar
   124   149   150    1
   125    77    78    1
   126    77    76    1
   127   126   123    1
   128    86    85    1
   129     9    10    1
   130    85    84    1
   131   167   169   ar
   132   167   165   ar
   133   113   112    1
   134   169   170   ar
   135    13    10    1
   136    13    14    1
   137   160   161    1
   138   112   109    1
   139   161   164    1
   140    10    11    1
   141    16    14   ar
   142    75    76    1
   143    75    74    1
   144    84    83    1
   145    14    15   ar
   146    83    80    1
   147   164   165    1
   148   123   124    1
   149   123   122    1
   150    70    71    1
   151   121   119    1
   152   165   166   ar
   153   124   125    2
   154   170   171    1
   155   170   168   ar
   156    71    74    1
   157    71    72    1
   158   119   120    1
   159   119   118    1
   160    80    79    1
   161    80    81    1
   162   109   108    1
   163   109   110    1
   164    11    12    2
   165   166   168   ar
   166    45    44    1
   167   108   106   am
   168   110   114   am
   169   110   111    2
   170    46    44    1
   171   114   115    1
   172    72    73    2
   173    81    82    2
   174    81    90   am
   175    44    43    2
   176   118   115    1
   177   115   116    1
   178    23    21    1
   179   106   105    1
   180   106   107    2
   181    22    24    1
   182    22    21    1
   183    90    91    1
   184    35    33    1
   185    43    42    1
   186   105   104    1
   187    98    96   ar
   188    98    99   ar
   189    96    95   ar
   190    21    18    1
   191   116   117    2
   192    42    41    1
   193   133   132    1
   194   133   134    2
   195   131   132    1
   196   135   132    1
   197   135   136    1
   198   137   136    1
   199    33    34    1
   200    33    32    2
   201    99   101   ar
   202    99    97   ar
   203    91    92    1
   204    91    94    1
   205   101   103   ar
   206    95    97   ar
   207    95    94    1
   208   136   138    1
   209    32    31    1
   210    41    40    1
   211    18    19    1
   212    18    17    1
   213    92    93    2
   214    97   100   ar
   215   103   102   ar
   216    19    20    2
   217    53    52    1
   218    31    30    1
   219    40    37    1
   220   100   102   ar
   221    37    36    1
   222    37    38    1
   223    30    29    1
   224    52    54    1
   225    52    51    1
   226    29    26    1
   227    36    27   am
   228    51    48    1
   229    27    26    1
   230    27    28    2
   231    38    39    2
   232    26    25    1
   233    48    47    1
   234    48    49    1
   235    49    50    2
