@<TRIPOS>MOLECULE
tmp/1zyjA01.pdb
 156 146 0 0 0
SMALL
GASTEIGER

@<TRIPOS>ATOM
      1  N         58.2040   42.8820  -23.2880 N.3    26  VAL26      -0.1245
      2  CA        56.8060   42.9960  -23.6890 C.3    26  VAL26       0.1561
      3  C         55.8690   42.9950  -22.4850 C.2    26  VAL26       0.2260
      4  O         54.8000   43.5990  -22.5260 O.2    26  VAL26      -0.2867
      5  CB        56.3860   41.8720  -24.6730 C.3    26  VAL26       0.0252
      6  CG1       57.1100   42.0350  -25.9980 C.3    26  VAL26       0.0019
      7  CG2       56.6700   40.5050  -24.0800 C.3    26  VAL26       0.0019
      8  N         58.8990   38.8050  -19.5360 N.3    30  VAL30      -0.1245
      9  CA        58.8220   38.2630  -20.8860 C.3    30  VAL30       0.1561
     10  C         59.4460   39.2160  -21.8980 C.2    30  VAL30       0.2260
     11  O         59.3240   40.4360  -21.7810 O.2    30  VAL30      -0.2867
     12  CB        57.3580   37.9710  -21.3090 C.3    30  VAL30       0.0252
     13  CG1       57.3280   37.2920  -22.6710 C.3    30  VAL30       0.0019
     14  CG2       56.6690   37.0980  -20.2790 C.3    30  VAL30       0.0019
     15  N         60.1770   39.6730  -26.2710 N.3    32  ALA32      -0.1245
     16  CA        59.9040   39.2050  -27.6200 C.3    32  ALA32       0.1562
     17  C         61.3020   38.9280  -28.1670 C.2    32  ALA32       0.2260
     18  O         62.2760   39.5080  -27.6960 O.2    32  ALA32      -0.2867
     19  CB        59.2180   40.2890  -28.4370 C.3    32  ALA32       0.0290
     20  N         58.3020   34.3220  -27.7750 N.3    43  ALA43      -0.1245
     21  CA        58.1950   34.9650  -26.4770 C.3    43  ALA43       0.1562
     22  C         59.0950   34.1790  -25.5290 C.2    43  ALA43       0.2260
     23  O         58.9550   32.9600  -25.3970 O.2    43  ALA43      -0.2867
     24  CB        56.7510   34.9440  -25.9880 C.3    43  ALA43       0.0290
     25  N         60.3050   33.7630  -21.7040 N.3    45  LYS45      -0.1245
     26  CA        59.9920   34.1290  -20.3360 C.3    45  LYS45       0.1561
     27  C         61.0350   33.6530  -19.3360 C.2    45  LYS45       0.2260
     28  O         61.3830   32.4710  -19.2900 O.2    45  LYS45      -0.2867
     29  CB        58.6090   33.6280  -19.9140 C.3    45  LYS45       0.0271
     30  CG        58.2520   34.0580  -18.4920 C.3    45  LYS45       0.0035
     31  CD        56.7900   33.8770  -18.1570 C.3    45  LYS45       0.0206
     32  CE        56.4320   32.4280  -17.9050 C.3    45  LYS45       0.1093
     33  NZ        55.0900   32.3500  -17.2530 N.3    45  LYS45      -0.1314
     34  N         54.8250   24.7410  -13.4940 N.3    63  GLU63      -0.1245
     35  CA        54.7340   25.3880  -14.7970 C.3    63  GLU63       0.1567
     36  C         55.4840   24.6550  -15.8990 C.2    63  GLU63       0.2260
     37  O         54.9690   24.4970  -17.0060 O.2    63  GLU63      -0.2867
     38  CB        55.2020   26.8430  -14.7270 C.3    63  GLU63       0.0388
     39  CG        54.9920   27.5820  -16.0440 C.3    63  GLU63       0.1160
     40  CD        55.4090   29.0360  -15.9970 C.2    63  GLU63       0.3649
     41  OE1       54.9600   29.7960  -16.8740 O.co2  63  GLU63      -0.2457
     42  OE2       56.1860   29.4190  -15.1030 O.co2  63  GLU63      -0.2457
     43  N         53.5970   23.1340  -19.2060 N.3    67  LEU67      -0.1245
     44  CA        53.9810   23.5420  -20.5480 C.3    67  LEU67       0.1561
     45  C         54.5700   22.4200  -21.3990 C.2    67  LEU67       0.2260
     46  O         54.3440   22.3760  -22.6060 O.2    67  LEU67      -0.2867
     47  CB        54.9280   24.7370  -20.4910 C.3    67  LEU67       0.0270
     48  CG        54.2960   26.0260  -19.9680 C.3    67  LEU67       0.0019
     49  CD1       55.3340   27.1230  -19.9230 C.3    67  LEU67       0.0001
     50  CD2       53.1290   26.4310  -20.8530 C.3    67  LEU67       0.0001
     51  N         48.9420   27.2650  -25.2900 N.3    76  ILE76      -0.1231
     52  CA        50.3550   27.6100  -25.3650 C.3    76  ILE76       0.1692
     53  C         51.1890   26.3710  -25.0480 C.2    76  ILE76       0.2593
     54  O         50.8850   25.6310  -24.1140 O.2    76  ILE76      -0.2718
     55  CB        50.7070   28.7900  -24.4180 C.3    76  ILE76       0.0266
     56  CG1       51.8900   29.5740  -24.9760 C.3    76  ILE76       0.0019
     57  CG2       51.0240   28.3110  -23.0040 C.3    76  ILE76       0.0020
     58  CD1       51.5550   30.2790  -26.2890 C.3    76  ILE76       0.0001
     59  N         52.1800   26.1050  -25.8940 N.am   77  GLY77      -0.1942
     60  CA        53.0780   24.9830  -25.6710 C.3    77  GLY77       0.2014
     61  C         54.5330   25.4180  -25.6540 C.2    77  GLY77       0.2638
     62  O         54.8440   26.5680  -25.9520 O.2    77  GLY77      -0.2714
     63  N         55.4300   24.5060  -25.3000 N.am   78  LEU78      -0.1977
     64  CA        56.8490   24.8280  -25.2350 C.3    78  LEU78       0.1596
     65  C         57.6120   24.6360  -26.5300 C.2    78  LEU78       0.2287
     66  O         57.5900   23.5670  -27.1290 O.2    78  LEU78      -0.2864
     67  CB        57.5400   24.0150  -24.1440 C.3    78  LEU78       0.0297
     68  CG        57.6770   24.6290  -22.7580 C.3    78  LEU78       0.0022
     69  CD1       58.5700   23.7240  -21.9240 C.3    78  LEU78       0.0001
     70  CD2       58.2670   26.0280  -22.8500 C.3    78  LEU78       0.0001
     71  N         61.6760   29.9940  -20.4700 N.3    96  LEU96      -0.1231
     72  CA        60.7060   29.2580  -21.2780 C.3    96  LEU96       0.1693
     73  C         60.4940   30.0100  -22.5780 C.2    96  LEU96       0.2592
     74  O         60.4610   31.2360  -22.5860 O.2    96  LEU96      -0.2718
     75  CB        59.3730   29.1550  -20.5300 C.3    96  LEU96       0.0284
     76  CG        59.4610   28.6470  -19.0890 C.3    96  LEU96       0.0019
     77  CD1       58.1360   28.8580  -18.3760 C.3    96  LEU96       0.0001
     78  CD2       59.8530   27.1860  -19.0760 C.3    96  LEU96       0.0001
     79  N         60.3280   29.2780  -23.6700 N.am   97  VAL97      -0.1966
     80  CA        60.1260   29.9070  -24.9710 C.3    97  VAL97       0.1727
     81  C         58.9010   29.3460  -25.6890 C.2    97  VAL97       0.2617
     82  O         58.6930   28.1360  -25.7390 O.2    97  VAL97      -0.2715
     83  CB        61.3740   29.7180  -25.8820 C.3    97  VAL97       0.0290
     84  CG1       61.1940   30.4670  -27.1910 C.3    97  VAL97       0.0023
     85  CG2       62.6340   30.2000  -25.1630 C.3    97  VAL97       0.0023
     86  N         58.0930   30.2320  -26.2520 N.am   98  THR98      -0.1937
     87  CA        56.9080   29.7980  -26.9750 C.3    98  THR98       0.2028
     88  C         56.5680   30.8000  -28.0720 C.2    98  THR98       0.2642
     89  O         57.2000   31.8490  -28.1890 O.2    98  THR98      -0.2714
     90  CB        55.6950   29.6640  -26.0300 C.3    98  THR98       0.1808
     91  OG1       54.6050   29.0480  -26.7360 O.3    98  THR98      -0.2208
     92  CG2       55.2650   31.0420  -25.5300 C.3    98  THR98       0.0379
     93  N         55.5600   30.4670  -28.8700 N.am   99  HIS99      -0.1959
     94  CA        55.1160   31.3360  -29.9550 C.3    99  HIS99       0.1787
     95  C         54.6310   32.6890  -29.4540 C.2    99  HIS99       0.2620
     96  O         54.0040   32.7890  -28.4020 O.2    99  HIS99      -0.2715
     97  CB        53.9790   30.6750  -30.7420 C.3    99  HIS99       0.0785
     98  CG        54.4250   29.5610  -31.6370 C.ar   99  HIS99       0.0821
     99  ND1       53.9860   28.2630  -31.4860 N.ar   99  HIS99      -0.2267
    100  CD2       55.2680   29.5520  -32.6960 C.ar   99  HIS99       0.1154
    101  CE1       54.5200   27.5080  -32.4310 C.ar   99  HIS99       0.1986
    102  NE2       55.2900   28.2690  -33.1870 N.ar   99  HIS99      -0.2212
    103  N         54.9910   33.7350  -30.1850 N.am  100  LEU100     -0.1963
    104  CA        54.5660   35.0910  -29.8740 C.3   100  LEU100      0.1728
    105  C         53.4360   35.2990  -30.8810 C.2   100  LEU100      0.2616
    106  O         53.6700   35.2990  -32.0920 O.2   100  LEU100     -0.2715
    107  CB        55.7040   36.0720  -30.1430 C.3   100  LEU100      0.0311
    108  CG        55.4140   37.5310  -29.8030 C.3   100  LEU100      0.0022
    109  CD1       55.1770   37.6630  -28.3050 C.3   100  LEU100      0.0001
    110  CD2       56.5730   38.4110  -30.2510 C.3   100  LEU100      0.0001
    111  N         52.2130   35.4570  -30.3890 N.am  101  MET101     -0.1963
    112  CA        51.0640   35.5920  -31.2810 C.3   101  MET101      0.1736
    113  C         50.8050   36.9230  -31.9980 C.2   101  MET101      0.2617
    114  O         50.3510   36.9240  -33.1430 O.2   101  MET101     -0.2715
    115  CB        49.7970   35.1010  -30.5760 C.3   101  MET101      0.0427
    116  CG        49.8370   33.6150  -30.2190 C.3   101  MET101      0.0599
    117  SD        49.8460   32.5350  -31.6630 S.3   101  MET101     -0.1393
    118  CE        48.0610   32.3940  -32.0060 C.3   101  MET101      0.0692
    119  N         51.0610   38.0450  -31.3340 N.am  102  GLY102     -0.1940
    120  CA        50.7460   39.3320  -31.9380 C.3   102  GLY102      0.2014
    121  C         50.0550   40.2920  -30.9830 C.2   102  GLY102      0.2639
    122  O         50.4590   41.4460  -30.8410 O.2   102  GLY102     -0.2714
    123  N         49.0150   39.8070  -30.3150 N.am  103  ALA103     -0.1963
    124  CA        48.2630   40.6210  -29.3650 C.3   103  ALA103      0.1728
    125  C         47.4010   39.7160  -28.4990 C.2   103  ALA103      0.2616
    126  O         47.3230   38.5160  -28.7350 O.2   103  ALA103     -0.2715
    127  CB        47.3740   41.6120  -30.1180 C.3   103  ALA103      0.0334
    128  N         46.7970   40.2870  -27.4650 N.am  104  ASP104     -0.1971
    129  CA        45.9060   39.5230  -26.6120 C.3   104  ASP104      0.1709
    130  C         44.4790   39.9670  -26.9160 C.2   104  ASP104      0.2293
    131  O         44.2630   41.0300  -27.5130 O.2   104  ASP104     -0.2864
    132  CB        46.2580   39.6710  -25.1230 C.3   104  ASP104      0.1436
    133  CG        46.1930   41.1030  -24.6260 C.2   104  ASP104      0.3671
    134  OD1       47.0890   41.4920  -23.8470 O.co2 104  ASP104     -0.2456
    135  OD2       45.2440   41.8300  -24.9780 O.co2 104  ASP104     -0.2456
    136  N         45.9940   34.8280  -26.4000 N.3   149  ALA149     -0.1245
    137  CA        46.8120   35.4080  -27.4590 C.3   149  ALA149      0.1562
    138  C         46.2200   35.1060  -28.8290 C.2   149  ALA149      0.2260
    139  O         45.8830   33.9610  -29.1400 O.2   149  ALA149     -0.2867
    140  CB        48.2430   34.8900  -27.3650 C.3   149  ALA149      0.0290
    141  N         46.8600   31.0680  -22.6710 N.3   159  LEU159     -0.1231
    142  CA        48.0950   31.2220  -21.8970 C.3   159  LEU159      0.1693
    143  C         47.8470   31.0720  -20.3990 C.2   159  LEU159      0.2592
    144  O         46.7260   31.2270  -19.9370 O.2   159  LEU159     -0.2718
    145  CB        48.6760   32.6270  -22.0950 C.3   159  LEU159      0.0284
    146  CG        49.3440   33.0880  -23.3870 C.3   159  LEU159      0.0019
    147  CD1       48.4510   32.8580  -24.5770 C.3   159  LEU159      0.0001
    148  CD2       49.6770   34.5720  -23.2440 C.3   159  LEU159      0.0001
    149  N         48.9320   30.8400  -19.6580 N.am  160  ASP160     -0.1974
    150  CA        48.9600   30.7260  -18.1900 C.3   160  ASP160      0.1709
    151  C         47.9330   29.8730  -17.4410 C.2   160  ASP160      0.2293
    152  O         47.4090   30.3000  -16.4130 O.2   160  ASP160     -0.2864
    153  CB        48.9730   32.1250  -17.5610 C.3   160  ASP160      0.1436
    154  CG        50.2260   32.9210  -17.9000 C.2   160  ASP160      0.3671
    155  OD1       51.1200   32.4020  -18.6080 O.co2 160  ASP160     -0.2456
    156  OD2       50.3140   34.0830  -17.4490 O.co2 160  ASP160     -0.2456
@<TRIPOS>BOND
     1   102   100   ar
     2   102   101   ar
     3   114   113    2
     4   100    98   ar
     5   101    99   ar
     6   106   105    2
     7   118   117    1
     8   113   119   am
     9   113   112    1
    10   120   119    1
    11   120   121    1
    12   117   116    1
    13    98    99   ar
    14    98    97    1
    15   112   115    1
    16   112   111    1
    17   121   122    2
    18   121   123   am
    19   105   111   am
    20   105   104    1
    21    97    94    1
    22   115   116    1
    23   123   124    1
    24   110   108    1
    25   103   104    1
    26   103    95   am
    27   107   104    1
    28   107   108    1
    29   127   124    1
    30    94    95    1
    31    94    93    1
    32   108   109    1
    33    95    96    2
    34   124   125    1
    35   139   138    2
    36    93    88   am
    37   138   137    1
    38   126   125    2
    39   125   128   am
    40    19    16    1
    41    89    88    2
    42    17    18    2
    43    17    16    1
    44    88    87    1
    45    20    21    1
    46    16    15    1
    47   131   130    2
    48   128   129    1
    49   137   140    1
    50   137   136    1
    51    84    83    1
    52    66    65    2
    53    87    86    1
    54    87    90    1
    55   130   129    1
    56    91    90    1
    57   129   132    1
    58    65    64    1
    59    21    24    1
    60    21    22    1
    61    58    56    1
    62    86    81   am
    63    90    92    1
    64     6     5    1
    65    62    61    2
    66    59    60    1
    67    59    53   am
    68    83    85    1
    69    83    80    1
    70    82    81    2
    71    81    80    1
    72    60    61    1
    73    61    63   am
    74    22    23    2
    75    52    51    1
    76    52    53    1
    77    52    55    1
    78    63    64    1
    79    64    67    1
    80   132   133    1
    81    53    54    2
    82   135   133   ar
    83    56    55    1
    84    80    79    1
    85     5     7    1
    86     5     2    1
    87   133   134   ar
    88   147   146    1
    89    55    57    1
    90    67    68    1
    91     2     1    1
    92     2     3    1
    93    79    73   am
    94   146   148    1
    95   146   145    1
    96    70    68    1
    97    68    69    1
    98   141   142    1
    99    13    12    1
   100    46    45    2
   101    74    73    2
   102    73    72    1
   103     4     3    2
   104   145   142    1
   105    10    11    2
   106    10     9    1
   107   142   143    1
   108    25    26    1
   109    45    44    1
   110    12     9    1
   111    12    14    1
   112    72    75    1
   113    72    71    1
   114     9     8    1
   115    50    48    1
   116    44    47    1
   117    44    43    1
   118    75    76    1
   119    47    48    1
   120   143   144    2
   121   143   149   am
   122    26    29    1
   123    26    27    1
   124    48    49    1
   125    29    30    1
   126   149   150    1
   127    27    28    2
   128    76    78    1
   129    76    77    1
   130   155   154   ar
   131    30    31    1
   132   150   153    1
   133   150   151    1
   134    31    32    1
   135    32    33    1
   136   154   153    1
   137   154   156   ar
   138   151   152    2
   139    37    36    2
   140    41    40   ar
   141    39    40    1
   142    39    38    1
   143    40    42   ar
   144    36    35    1
   145    35    38    1
   146    35    34    1
