@<TRIPOS>MOLECULE
tmp/1zykC00.pdb
 141 134 0 0 0
SMALL
GASTEIGER

@<TRIPOS>ATOM
      1  N         -1.4470  -13.7170  128.0810 N.3    77  THR77      -0.1203
      2  CA        -2.2950  -12.9400  128.9780 C.3    77  THR77       0.1994
      3  C         -2.4120  -11.4760  128.5710 C.2    77  THR77       0.2618
      4  O         -2.9240  -10.6550  129.3290 O.2    77  THR77      -0.2717
      5  CB        -1.7600  -12.9770  130.4200 C.3    77  THR77       0.1784
      6  OG1       -0.4350  -12.4260  130.4450 O.3    77  THR77      -0.2211
      7  CG2       -1.7170  -14.4090  130.9410 C.3    77  THR77       0.0376
      8  N         -1.9490  -11.1500  127.3730 N.am   78  ALA78      -0.1965
      9  CA        -1.9950   -9.7740  126.8850 C.3    78  ALA78       0.1728
     10  C         -3.4080   -9.2250  126.7020 C.2    78  ALA78       0.2616
     11  O         -4.3140   -9.9470  126.2950 O.2    78  ALA78      -0.2715
     12  CB        -1.2300   -9.6770  125.5730 C.3    78  ALA78       0.0334
     13  N         -3.5850   -7.9400  127.0100 N.am   79  GLY79      -0.1955
     14  CA        -4.8830   -7.2970  126.8510 C.3    79  GLY79       0.1869
     15  C         -4.7690   -6.0360  126.0010 C.2    79  GLY79       0.2309
     16  O         -3.6740   -5.5050  125.8050 O.2    79  GLY79      -0.2863
     17  N         -5.2730   -2.9510  126.5360 N.3    81  GLY81      -0.1210
     18  CA        -4.7160   -1.7560  127.1370 C.3    81  GLY81       0.1956
     19  C         -5.6840   -0.6240  126.8280 C.2    81  GLY81       0.2612
     20  O         -6.8530   -0.8660  126.4970 O.2    81  GLY81      -0.2717
     21  N         -5.2200    0.6140  126.9590 N.am   82  GLY82      -0.1942
     22  CA        -6.0750    1.7470  126.6510 C.3    82  GLY82       0.2014
     23  C         -6.9120    2.3060  127.7880 C.2    82  GLY82       0.2638
     24  O         -7.5530    3.3500  127.6260 O.2    82  GLY82      -0.2714
     25  N         -6.9260    1.6290  128.9350 N.am   83  ASP83      -0.1971
     26  CA        -7.6980    2.1090  130.0810 C.3    83  ASP83       0.1709
     27  C         -7.0630    3.3480  130.7290 C.2    83  ASP83       0.2293
     28  O         -7.7040    4.0380  131.5250 O.2    83  ASP83      -0.2864
     29  CB        -7.8700    1.0030  131.1410 C.3    83  ASP83       0.1436
     30  CG        -6.5560    0.6110  131.8330 C.2    83  ASP83       0.3671
     31  OD1       -5.7710    1.5060  132.2170 O.co2  83  ASP83      -0.2456
     32  OD2       -6.3210   -0.6040  132.0170 O.co2  83  ASP83      -0.2456
     33  N         -2.6830    3.4340  134.3140 N.3    86  GLY86      -0.1210
     34  CA        -1.2910    3.2260  134.6710 C.3    86  GLY86       0.1956
     35  C         -1.1090    2.3030  135.8660 C.2    86  GLY86       0.2613
     36  O         -0.3970    2.6460  136.8200 O.2    86  GLY86      -0.2717
     37  N         -1.7630    1.1430  135.8270 N.am   87  THR87      -0.1938
     38  CA        -1.6540    0.1740  136.9080 C.3    87  THR87       0.2028
     39  C         -0.4180   -0.6620  136.6490 C.2    87  THR87       0.2642
     40  O          0.0940   -0.6930  135.5300 O.2    87  THR87      -0.2714
     41  CB        -2.8600   -0.8040  136.9670 C.3    87  THR87       0.1808
     42  OG1       -2.8330   -1.6690  135.8210 O.3    87  THR87      -0.2208
     43  CG2       -4.1770   -0.0490  137.0090 C.3    87  THR87       0.0379
     44  N          0.0460   -1.3430  137.6900 N.am   88  VAL88      -0.1963
     45  CA         1.2080   -2.2080  137.5930 C.3    88  VAL88       0.1727
     46  C          0.9360   -3.1850  136.4410 C.2    88  VAL88       0.2616
     47  O         -0.2270   -3.4930  136.1540 O.2    88  VAL88      -0.2715
     48  CB         1.3810   -2.9670  138.9200 C.3    88  VAL88       0.0290
     49  CG1        0.0840   -3.6940  139.2570 C.3    88  VAL88       0.0023
     50  CG2        2.5540   -3.9180  138.8430 C.3    88  VAL88       0.0023
     51  N          1.9890   -3.6450  135.7620 N.am   89  ASN89      -0.1972
     52  CA         1.8180   -4.5890  134.6490 C.3    89  ASN89       0.1688
     53  C          1.4490   -5.9770  135.1760 C.2    89  ASN89       0.2292
     54  O          2.2970   -6.8740  135.2390 O.2    89  ASN89      -0.2864
     55  CB         3.0970   -4.6890  133.8070 C.3    89  ASN89       0.1181
     56  CG         3.5760   -3.3320  133.2910 C.2    89  ASN89       0.2629
     57  OD1        4.4110   -2.6780  133.9240 O.2    89  ASN89      -0.2716
     58  ND2        3.0460   -2.9040  132.1410 N.am   89  ASN89      -0.0877
     59  N         -0.4950   -8.4620  133.8560 N.3    91  SER91      -0.1202
     60  CA        -0.5190   -9.6540  133.0120 C.3    91  SER91       0.2020
     61  C          0.8700  -10.2020  132.7680 C.2    91  SER91       0.2619
     62  O          1.0410  -11.4000  132.6090 O.2    91  SER91      -0.2717
     63  CB        -1.1880   -9.3950  131.6780 C.3    91  SER91       0.2103
     64  OG        -2.5920   -9.4220  131.8580 O.3    91  SER91      -0.2182
     65  N          1.8660   -9.3270  132.7220 N.am   92  THR92      -0.1952
     66  CA         3.2340   -9.7810  132.5280 C.3    92  THR92       0.1897
     67  C          3.6210  -10.5390  133.7990 C.2    92  THR92       0.2313
     68  O          4.2200  -11.6260  133.7490 O.2    92  THR92      -0.2863
     69  CB         4.2010   -8.5950  132.3610 C.3    92  THR92       0.1794
     70  OG1        3.8030   -7.8110  131.2320 O.3    92  THR92      -0.2208
     71  CG2        5.6280   -9.0850  132.1450 C.3    92  THR92       0.0378
     72  N          3.9920  -14.7720  125.8150 N.3   106  LYS106     -0.1231
     73  CA         3.4730  -13.4440  126.0810 C.3   106  LYS106      0.1693
     74  C          3.7070  -12.4820  124.9160 C.2   106  LYS106      0.2592
     75  O          4.8440  -12.2110  124.5450 O.2   106  LYS106     -0.2718
     76  CB         4.1260  -12.9150  127.3640 C.3   106  LYS106      0.0285
     77  CG         3.6760  -11.5360  127.8030 C.3   106  LYS106      0.0035
     78  CD         2.1950  -11.5070  128.1150 C.3   106  LYS106      0.0206
     79  CE         1.7650  -10.1060  128.5660 C.3   106  LYS106      0.1093
     80  NZ         1.9110   -9.0810  127.4920 N.3   106  LYS106     -0.1314
     81  N          2.6230  -11.9960  124.3240 N.am  107  HIS107     -0.1962
     82  CA         2.7030  -11.0380  123.2240 C.3   107  HIS107      0.1787
     83  C          2.5930   -9.6870  123.9230 C.2   107  HIS107      0.2621
     84  O          1.7160   -9.5070  124.7660 O.2   107  HIS107     -0.2715
     85  CB         1.5090  -11.2190  122.2680 C.3   107  HIS107      0.0785
     86  CG         1.6280  -10.4570  120.9800 C.ar  107  HIS107      0.0821
     87  ND1        0.5330  -10.1270  120.2080 N.ar  107  HIS107     -0.2267
     88  CD2        2.7130  -10.0140  120.2990 C.ar  107  HIS107      0.1154
     89  CE1        0.9390   -9.5150  119.1100 C.ar  107  HIS107      0.1986
     90  NE2        2.2570   -9.4350  119.1400 N.ar  107  HIS107     -0.2212
     91  N          3.4760   -8.7500  123.6000 N.am  108  GLY108     -0.1940
     92  CA         3.4020   -7.4500  124.2400 C.3   108  GLY108      0.2014
     93  C          4.1270   -6.3500  123.4960 C.2   108  GLY108      0.2638
     94  O          4.8190   -6.6060  122.5080 O.2   108  GLY108     -0.2714
     95  N          3.9790   -5.1200  123.9780 N.am  109  ASN109     -0.1972
     96  CA         4.6140   -3.9690  123.3440 C.3   109  ASN109      0.1688
     97  C          5.0140   -2.9520  124.4100 C.2   109  ASN109      0.2292
     98  O          4.7030   -3.1200  125.5860 O.2   109  ASN109     -0.2864
     99  CB         3.6210   -3.3270  122.3660 C.3   109  ASN109      0.1181
    100  CG         4.3010   -2.5640  121.2450 C.2   109  ASN109      0.2629
    101  OD1        5.5010   -2.2890  121.2990 O.2   109  ASN109     -0.2716
    102  ND2        3.5260   -2.2080  120.2170 N.am  109  ASN109     -0.0877
    103  N          4.6950   -0.2700  129.6800 N.3   117  GLY117     -0.1210
    104  CA         3.9530   -1.3520  129.0700 C.3   117  GLY117      0.1956
    105  C          4.6580   -2.6650  129.3620 C.2   117  GLY117      0.2612
    106  O          5.7240   -2.6750  129.9770 O.2   117  GLY117     -0.2717
    107  N          4.0760   -3.7690  128.9060 N.am  118  SER118     -0.1952
    108  CA         4.6370   -5.0890  129.1390 C.3   118  SER118      0.1924
    109  C          6.1130   -5.1650  128.8100 C.2   118  SER118      0.2314
    110  O          6.9080   -5.6310  129.6210 O.2   118  SER118     -0.2863
    111  CB         3.8990   -6.1320  128.3120 C.3   118  SER118      0.2116
    112  OG         4.4110   -7.4260  128.5810 O.3   118  SER118     -0.2180
    113  N         -7.7830   -8.9170  128.2690 N.3   191  GLY191     -0.1225
    114  CA        -8.4810   -7.8220  128.9040 C.3   191  GLY191      0.1811
    115  C         -8.9370   -6.8230  127.8600 C.2   191  GLY191      0.2280
    116  O         -8.2130   -6.5370  126.8980 O.2   191  GLY191     -0.2866
    117  N        -11.0450   -1.1430  133.5240 N.3   222  ILE222     -0.1231
    118  CA        -9.7070   -1.6520  133.3640 C.3   222  ILE222      0.1692
    119  C         -9.8300   -2.9860  132.6350 C.2   222  ILE222      0.2592
    120  O        -10.7790   -3.7320  132.8710 O.2   222  ILE222     -0.2718
    121  CB        -9.0900   -1.8360  134.7720 C.3   222  ILE222      0.0266
    122  CG1       -7.7030   -2.4530  134.6800 C.3   222  ILE222      0.0019
    123  CG2      -10.0040   -2.7060  135.6300 C.3   222  ILE222      0.0020
    124  CD1       -7.0420   -2.6100  136.0270 C.3   222  ILE222      0.0001
    125  N         -8.8910   -3.2840  131.7440 N.am  223  ASP223     -0.1960
    126  CA        -8.9430   -4.5400  131.0120 C.3   223  ASP223      0.1840
    127  C         -8.1980   -5.6240  131.7840 C.2   223  ASP223      0.2621
    128  O         -7.2480   -6.2400  131.2940 O.2   223  ASP223     -0.2715
    129  CB        -8.3420   -4.3500  129.6420 C.3   223  ASP223      0.1450
    130  CG        -6.9430   -3.8550  129.7140 C.2   223  ASP223      0.3671
    131  OD1       -6.6250   -3.2260  130.7380 O.co2 223  ASP223     -0.2456
    132  OD2       -6.1720   -4.0850  128.7580 O.co2 223  ASP223     -0.2456
    133  N         -8.6680   -5.8480  133.0070 N.am  224  GLU224     -0.1977
    134  CA        -8.1070   -6.8390  133.9240 C.3   224  GLU224      0.1602
    135  C         -9.2530   -7.3360  134.7750 C.2   224  GLU224      0.2287
    136  O        -10.3610   -6.7780  134.7240 O.2   224  GLU224     -0.2864
    137  CB        -7.1350   -6.1870  134.9000 C.3   224  GLU224      0.0415
    138  CG        -6.0340   -5.4330  134.2840 C.3   224  GLU224      0.1163
    139  CD        -4.9750   -6.3480  133.7560 C.2   224  GLU224      0.3649
    140  OE1       -3.8190   -5.9060  133.7360 O.co2 224  GLU224     -0.2457
    141  OE2       -5.2770   -7.4980  133.3650 O.co2 224  GLU224     -0.2457
@<TRIPOS>BOND
     1    89    90   ar
     2    89    87   ar
     3    90    88   ar
     4    87    86   ar
     5   102   100   am
     6    88    86   ar
     7    86    85    1
     8   100   101    2
     9   100    99    1
    10    85    82    1
    11    99    96    1
    12    94    93    2
    13    82    83    1
    14    82    81    1
    15    96    95    1
    16    96    97    1
    17    93    95   am
    18    93    92    1
    19    91    83   am
    20    91    92    1
    21    83    84    2
    22    81    74   am
    23    97    98    2
    24    75    74    2
    25    74    73    1
    26    12     9    1
    27    16    15    2
    28    72    73    1
    29    15    14    1
    30    73    76    1
    31    11    10    2
    32    20    19    2
    33    17    18    1
    34    22    21    1
    35    22    23    1
    36    10     9    1
    37    10    13   am
    38    19    21   am
    39    19    18    1
    40    14    13    1
    41     9     8    1
    42   116   115    2
    43    76    77    1
    44     8     3   am
    45    80    79    1
    46    24    23    2
    47    23    25   am
    48    77    78    1
    49   115   114    1
    50     1     2    1
    51    78    79    1
    52   113   114    1
    53   111   112    1
    54   111   108    1
    55     3     2    1
    56     3     4    2
    57   132   130   ar
    58   109   108    1
    59   109   110    2
    60   107   108    1
    61   107   105   am
    62    25    26    1
    63     2     5    1
    64   104   105    1
    65   104   103    1
    66   105   106    2
    67   129   130    1
    68   129   126    1
    69   130   131   ar
    70    26    27    1
    71    26    29    1
    72     5     6    1
    73     5     7    1
    74    27    28    2
    75   126   125    1
    76   126   127    1
    77    29    30    1
    78    70    69    1
    79   128   127    2
    80    63    64    1
    81    63    60    1
    82   125   119   am
    83   127   133   am
    84    30    32   ar
    85    30    31   ar
    86    58    56   am
    87    71    69    1
    88    69    66    1
    89    66    65    1
    90    66    67    1
    91    62    61    2
    92   119   120    2
    93   119   118    1
    94    65    61   am
    95    61    60    1
    96   133   134    1
    97    60    59    1
    98    56    55    1
    99    56    57    2
   100   118   117    1
   101   118   121    1
   102   141   139   ar
   103   140   139   ar
   104    68    67    2
   105   139   138    1
   106    55    52    1
   107   134   135    1
   108   134   137    1
   109   138   137    1
   110    33    34    1
   111    52    53    1
   112    52    51    1
   113    34    35    1
   114   122   121    1
   115   122   124    1
   116   136   135    2
   117   121   123    1
   118    53    54    2
   119    40    39    2
   120    51    46   am
   121    42    41    1
   122    37    35   am
   123    37    38    1
   124    35    36    2
   125    47    46    2
   126    46    45    1
   127    39    38    1
   128    39    44   am
   129    38    41    1
   130    41    43    1
   131    45    44    1
   132    45    48    1
   133    50    48    1
   134    48    49    1
