@<TRIPOS>MOLECULE
tmp/1zyqC00.pdb
 161 155 0 0 0
SMALL
GASTEIGER

@<TRIPOS>ATOM
      1  N         54.4240   21.1300    5.8290 N.3   405  ARG405     -0.1245
      2  CA        54.4830   22.0380    4.6970 C.3   405  ARG405      0.1563
      3  C         55.8610   22.6530    4.7020 C.2   405  ARG405      0.2260
      4  O         56.5520   22.6290    5.7210 O.2   405  ARG405     -0.2867
      5  CB        53.4520   23.1630    4.8330 C.3   405  ARG405      0.0307
      6  CG        52.0860   22.8880    4.2010 C.3   405  ARG405      0.0489
      7  CD        51.3400   24.1970    3.9650 C.3   405  ARG405      0.2205
      8  NE        49.9950   24.0000    3.4340 N.pl3 405  ARG405     -0.0865
      9  CZ        49.2400   24.9790    2.9400 C.cat 405  ARG405      0.5346
     10  NH1       49.7020   26.2250    2.9080 N.pl3 405  ARG405      0.1354
     11  NH2       48.0240   24.7150    2.4780 N.pl3 405  ARG405      0.1354
     12  N         49.1430   22.3630  -11.0270 N.3   451  ASP451     -0.1225
     13  CA        48.5640   22.5690   -9.7070 C.3   451  ASP451      0.1805
     14  C         47.6430   21.3930   -9.3490 C.2   451  ASP451      0.2598
     15  O         46.9490   20.8550  -10.2100 O.2   451  ASP451     -0.2718
     16  CB        47.8170   23.9080   -9.7190 C.3   451  ASP451      0.1424
     17  CG        46.7770   24.0220   -8.6260 C.2   451  ASP451      0.3668
     18  OD1       45.6550   23.4930   -8.8330 O.co2 451  ASP451     -0.2456
     19  OD2       47.0800   24.6370   -7.5680 O.co2 451  ASP451     -0.2456
     20  N         47.6580   20.9840   -8.0850 N.am  452  ALA452     -0.1966
     21  CA        46.8380   19.8620   -7.6300 C.3   452  ALA452      0.1728
     22  C         45.3880   20.2740   -7.3970 C.2   452  ALA452      0.2617
     23  O         45.1100   21.0980   -6.5410 O.2   452  ALA452     -0.2715
     24  CB        47.4270   19.2810   -6.3480 C.3   452  ALA452      0.0334
     25  N         44.4630   19.6680   -8.1330 N.am  453  SER453     -0.1936
     26  CA        43.0400   20.0000   -8.0300 C.3   453  SER453      0.2055
     27  C         42.3410   19.7230   -6.6910 C.2   453  SER453      0.2644
     28  O         42.4770   18.6440   -6.1250 O.2   453  SER453     -0.2714
     29  CB        42.2810   19.2920   -9.1510 C.3   453  SER453      0.2130
     30  OG        42.8120   19.6560  -10.4190 O.3   453  SER453     -0.2179
     31  N         41.5790   20.7110   -6.2150 N.am  454  GLY454     -0.1939
     32  CA        40.8390   20.5980   -4.9610 C.3   454  GLY454      0.2014
     33  C         41.4740   19.7030   -3.9160 C.2   454  GLY454      0.2639
     34  O         40.8050   18.8980   -3.2610 O.2   454  GLY454     -0.2714
     35  N         42.7760   19.8860   -3.7450 N.am  455  LEU455     -0.1963
     36  CA        43.5940   19.1020   -2.8350 C.3   455  LEU455      0.1728
     37  C         43.0910   18.7390   -1.4410 C.2   455  LEU455      0.2616
     38  O         42.9140   17.5550   -1.1220 O.2   455  LEU455     -0.2715
     39  CB        44.9520   19.7720   -2.6880 C.3   455  LEU455      0.0311
     40  CG        45.9610   18.9120   -1.9430 C.3   455  LEU455      0.0022
     41  CD1       46.0320   17.5080   -2.5680 C.3   455  LEU455      0.0001
     42  CD2       47.3010   19.6180   -1.9790 C.3   455  LEU455      0.0001
     43  N         42.8800   19.7400   -0.5960 N.am  456  GLU456     -0.1977
     44  CA        42.4680   19.4240    0.7550 C.3   456  GLU456      0.1602
     45  C         41.0280   18.9570    0.9540 C.2   456  GLU456      0.2287
     46  O         40.7000   18.4070    2.0010 O.2   456  GLU456     -0.2864
     47  CB        42.8540   20.5690    1.6990 C.3   456  GLU456      0.0415
     48  CG        44.2970   20.3980    2.2040 C.3   456  GLU456      0.1163
     49  CD        44.8080   21.5630    3.0530 C.2   456  GLU456      0.3649
     50  OE1       44.0920   21.9880    3.9910 O.co2 456  GLU456     -0.2457
     51  OE2       45.9410   22.0440    2.7860 O.co2 456  GLU456     -0.2457
     52  N         34.7410   23.4620   -6.1290 N.3   482  HIS482     -0.1241
     53  CA        34.7350   24.8510   -5.6640 C.3   482  HIS482      0.1621
     54  C         33.7060   25.7020   -6.4060 C.2   482  HIS482      0.2264
     55  O         33.1920   26.6880   -5.8660 O.2   482  HIS482     -0.2867
     56  CB        36.1340   25.4690   -5.8080 C.3   482  HIS482      0.0745
     57  CG        37.1460   24.8910   -4.8660 C.ar  482  HIS482      0.0817
     58  ND1       36.9860   24.9140   -3.4970 N.ar  482  HIS482     -0.2268
     59  CD2       38.3240   24.2640   -5.0970 C.ar  482  HIS482      0.1154
     60  CE1       38.0210   24.3250   -2.9240 C.ar  482  HIS482      0.1986
     61  NE2       38.8470   23.9220   -3.8730 N.ar  482  HIS482     -0.2212
     62  N         35.2220   32.0910   -7.6960 N.3   494  ARG494     -0.1245
     63  CA        35.6600   30.7470   -7.3140 C.3   494  ARG494      0.1563
     64  C         36.7220   30.7930   -6.2140 C.2   494  ARG494      0.2260
     65  O         36.7720   29.9140   -5.3570 O.2   494  ARG494     -0.2867
     66  CB        36.2160   30.0070   -8.5340 C.3   494  ARG494      0.0307
     67  CG        36.6990   28.5910   -8.2540 C.3   494  ARG494      0.0489
     68  CD        37.2700   27.9460   -9.5160 C.3   494  ARG494      0.2205
     69  NE        37.7100   26.5720   -9.2790 N.pl3 494  ARG494     -0.0865
     70  CZ        38.7890   26.2390   -8.5770 C.cat 494  ARG494      0.5346
     71  NH1       39.5530   27.1880   -8.0430 N.pl3 494  ARG494      0.1354
     72  NH2       39.0950   24.9590   -8.3920 N.pl3 494  ARG494      0.1354
     73  N         36.5040   29.1290   -2.3450 N.3   498  LYS498     -0.1231
     74  CA        37.5810   28.3380   -1.7600 C.3   498  LYS498      0.1693
     75  C         37.8590   28.8550   -0.3540 C.2   498  LYS498      0.2592
     76  O         37.9410   28.0720    0.5970 O.2   498  LYS498     -0.2718
     77  CB        38.8510   28.4480   -2.6150 C.3   498  LYS498      0.0285
     78  CG        38.7900   27.6620   -3.9120 C.3   498  LYS498      0.0035
     79  CD        39.9590   27.9700   -4.8350 C.3   498  LYS498      0.0206
     80  CE        41.2960   27.6540   -4.1940 C.3   498  LYS498      0.1093
     81  NZ        42.3970   27.9330   -5.1480 N.3   498  LYS498     -0.1314
     82  N         37.9960   30.1760   -0.2300 N.am  499  THR499     -0.1953
     83  CA        38.2620   30.8040    1.0600 C.3   499  THR499      0.1897
     84  C         37.1820   30.4020    2.0600 C.2   499  THR499      0.2313
     85  O         37.4690   30.1340    3.2300 O.2   499  THR499     -0.2863
     86  CB        38.2710   32.3460    0.9570 C.3   499  THR499      0.1794
     87  OG1       39.0640   32.7580   -0.1660 O.3   499  THR499     -0.2208
     88  CG2       38.8610   32.9540    2.2310 C.3   499  THR499      0.0378
     89  N         37.4070   26.4550    3.2240 N.3   502  TYR502     -0.1227
     90  CA        38.5600   26.2440    4.0860 C.3   502  TYR502      0.1736
     91  C         38.4710   26.9890    5.4170 C.2   502  TYR502      0.2596
     92  O         39.1170   26.6080    6.4000 O.2   502  TYR502     -0.2718
     93  CB        39.8650   26.5400    3.3340 C.3   502  TYR502      0.0548
     94  CG        40.2160   25.4190    2.3670 C.ar  502  TYR502     -0.0200
     95  CD1       40.2900   24.0930    2.8070 C.ar  502  TYR502     -0.0009
     96  CD2       40.4170   25.6710    1.0070 C.ar  502  TYR502     -0.0009
     97  CE1       40.5500   23.0410    1.9160 C.ar  502  TYR502      0.0417
     98  CE2       40.6770   24.6260    0.1020 C.ar  502  TYR502      0.0417
     99  CZ        40.7420   23.3130    0.5640 C.ar  502  TYR502      0.1957
    100  OH        41.0000   22.2800   -0.3180 O.3   502  TYR502     -0.2866
    101  N         37.6510   28.0340    5.4590 N.am  503  GLY503     -0.1957
    102  CA        37.4670   28.7620    6.7000 C.3   503  GLY503      0.1869
    103  C         36.4170   27.9950    7.4840 C.2   503  GLY503      0.2309
    104  O         36.4770   27.8580    8.7040 O.2   503  GLY503     -0.2863
    105  N         37.7380   24.4050    8.9200 N.3   506  TYR506     -0.1241
    106  CA        38.7050   24.4000   10.0140 C.3   506  TYR506      0.1605
    107  C         38.2720   25.1880   11.2500 C.2   506  TYR506      0.2264
    108  O         39.0950   25.7720   11.9510 O.2   506  TYR506     -0.2867
    109  CB        40.0770   24.8780    9.5300 C.3   506  TYR506      0.0534
    110  CG        40.7060   23.9470    8.5220 C.ar  506  TYR506     -0.0201
    111  CD1       40.6430   22.5650    8.6950 C.ar  506  TYR506     -0.0009
    112  CD2       41.3540   24.4410    7.3890 C.ar  506  TYR506     -0.0009
    113  CE1       41.2060   21.6930    7.7580 C.ar  506  TYR506      0.0417
    114  CE2       41.9250   23.5750    6.4450 C.ar  506  TYR506      0.0417
    115  CZ        41.8430   22.2030    6.6360 C.ar  506  TYR506      0.1957
    116  OH        42.3740   21.3400    5.7030 O.3   506  TYR506     -0.2866
    117  N         42.5960   20.5900   11.1110 N.3   587  ASN587     -0.1240
    118  CA        43.4280   21.2870   10.1570 C.3   587  ASN587      0.1653
    119  C         44.7680   20.5930   10.0850 C.2   587  ASN587      0.2266
    120  O         45.2400   20.2470    9.0080 O.2   587  ASN587     -0.2867
    121  CB        43.6190   22.7480   10.5720 C.3   587  ASN587      0.1155
    122  CG        44.6580   23.4690    9.7170 C.2   587  ASN587      0.2627
    123  OD1       45.8590   23.4200   10.0010 O.2   587  ASN587     -0.2716
    124  ND2       44.2000   24.1290    8.6540 N.am  587  ASN587     -0.0877
    125  N         45.9730   19.5120    6.4530 N.3   591  GLN591     -0.1245
    126  CA        47.0710   20.2870    5.8970 C.3   591  GLN591      0.1566
    127  C         48.3090   19.4120    5.8330 C.2   591  GLN591      0.2260
    128  O         49.0790   19.4830    4.8770 O.2   591  GLN591     -0.2867
    129  CB        47.3690   21.5270    6.7450 C.3   591  GLN591      0.0367
    130  CG        48.2570   22.5060    6.0170 C.3   591  GLN591      0.0905
    131  CD        48.6220   23.7150    6.8390 C.2   591  GLN591      0.2608
    132  OE1       49.6340   23.7190    7.5310 O.2   591  GLN591     -0.2717
    133  NE2       47.7960   24.7530    6.7700 N.am  591  GLN591     -0.0878
    134  N         53.4370   25.1400   -2.2920 N.3   629  HIS629     -0.1226
    135  CA        52.5410   24.2200   -1.5950 C.3   629  HIS629      0.1752
    136  C         51.9990   23.1340   -2.5070 C.2   629  HIS629      0.2596
    137  O         52.5400   22.0290   -2.5390 O.2   629  HIS629     -0.2718
    138  CB        51.4210   25.0100   -0.9220 C.3   629  HIS629      0.0759
    139  CG        51.9320   26.0750    0.0000 C.ar  629  HIS629      0.0818
    140  ND1       52.6510   25.7870    1.1390 N.ar  629  HIS629     -0.2268
    141  CD2       51.9290   27.4250   -0.1080 C.ar  629  HIS629      0.1154
    142  CE1       53.0760   26.9120    1.6870 C.ar  629  HIS629      0.1986
    143  NE2       52.6520   27.9200    0.9490 N.ar  629  HIS629     -0.2212
    144  N         50.9540   23.4250   -3.2680 N.am  630  ASP630     -0.1974
    145  CA        50.4330   22.4000   -4.1580 C.3   630  ASP630      0.1709
    146  C         50.5470   22.7930   -5.6260 C.2   630  ASP630      0.2293
    147  O         49.7800   22.3180   -6.4660 O.2   630  ASP630     -0.2864
    148  CB        48.9850   22.0980   -3.8140 C.3   630  ASP630      0.1436
    149  CG        48.0690   23.2310   -4.1610 C.2   630  ASP630      0.3671
    150  OD1       48.5160   24.3990   -4.1020 O.co2 630  ASP630     -0.2456
    151  OD2       46.8970   22.9490   -4.4810 O.co2 630  ASP630     -0.2456
    152  N         48.8160   30.0580  -14.2270 N.3   680  HIS680     -0.1241
    153  CA        48.1830   29.7250  -12.9510 C.3   680  HIS680      0.1621
    154  C         46.6720   29.8910  -12.9580 C.2   680  HIS680      0.2264
    155  O         45.9880   28.9170  -12.5710 O.2   680  HIS680     -0.2867
    156  CB        48.7680   30.5400  -11.7980 C.3   680  HIS680      0.0745
    157  CG        48.3420   30.0480  -10.4490 C.ar  680  HIS680      0.0817
    158  ND1       48.7190   28.8170   -9.9530 N.ar  680  HIS680     -0.2268
    159  CD2       47.5300   30.5960   -9.5120 C.ar  680  HIS680      0.1154
    160  CE1       48.1570   28.6280   -8.7720 C.ar  680  HIS680      0.1986
    161  NE2       47.4300   29.6930   -8.4810 N.ar  680  HIS680     -0.2212
@<TRIPOS>BOND
     1   152   153    1
     2   154   153    1
     3   154   155    2
     4   153   156    1
     5   156   157    1
     6    12    13    1
     7   157   158   ar
     8   157   159   ar
     9    30    29    1
    10    15    14    2
    11   158   160   ar
    12    16    13    1
    13    16    17    1
    14    13    14    1
    15    68    69    1
    16    68    67    1
    17   159   161   ar
    18    14    20   am
    19    69    70    2
    20    29    26    1
    21    18    17   ar
    22   160   161   ar
    23    17    19   ar
    24    70    72    1
    25    70    71    1
    26    66    67    1
    27    66    63    1
    28    25    26    1
    29    25    22   am
    30    20    21    1
    31    26    27    1
    32    62    63    1
    33    21    22    1
    34    21    24    1
    35    22    23    2
    36    63    64    1
    37    27    31   am
    38    27    28    2
    39   147   146    2
    40    54    55    2
    41    54    53    1
    42    31    32    1
    43    64    65    2
    44    52    53    1
    45    56    53    1
    46    56    57    1
    47   146   145    1
    48    81    80    1
    49    59    57   ar
    50    59    61   ar
    51    32    33    1
    52    57    58   ar
    53    79    80    1
    54    79    78    1
    55   151   149   ar
    56   149   150   ar
    57   149   148    1
    58   145   148    1
    59   145   144    1
    60    33    35   am
    61    33    34    2
    62    78    77    1
    63    61    60   ar
    64    35    36    1
    65    58    60   ar
    66   144   136   am
    67    36    39    1
    68    36    37    1
    69    39    40    1
    70    77    74    1
    71    41    40    1
    72   137   136    2
    73   136   135    1
    74    73    74    1
    75   134   135    1
    76    42    40    1
    77    74    75    1
    78   135   138    1
    79    37    38    2
    80    37    43   am
    81   138   139    1
    82    43    44    1
    83    75    82   am
    84    75    76    2
    85   100    99    1
    86    82    83    1
    87    87    86    1
    88   141   139   ar
    89   141   143   ar
    90   139   140   ar
    91    98    99   ar
    92    98    96   ar
    93    99    97   ar
    94    44    45    1
    95    44    47    1
    96   143   142   ar
    97    45    46    2
    98    86    83    1
    99    86    88    1
   100    96    94   ar
   101    83    84    1
   102   140   142   ar
   103    47    48    1
   104    97    95   ar
   105    84    85    2
   106    48    49    1
   107    94    95   ar
   108    94    93    1
   109    11     9    1
   110    51    49   ar
   111    10     9    1
   112     9     8    2
   113    49    50   ar
   114    89    90    1
   115    93    90    1
   116     8     7    1
   117     7     6    1
   118    90    91    1
   119     6     5    1
   120     2     3    1
   121     2     5    1
   122     2     1    1
   123     3     4    2
   124   128   127    2
   125    91   101   am
   126    91    92    2
   127   101   102    1
   128   116   115    1
   129   127   126    1
   130   126   125    1
   131   126   129    1
   132   130   129    1
   133   130   131    1
   134   114   115   ar
   135   114   112   ar
   136   115   113   ar
   137   102   103    1
   138   133   131   am
   139   131   132    2
   140   112   110   ar
   141   103   104    2
   142   113   111   ar
   143   110   111   ar
   144   110   109    1
   145   124   122   am
   146   105   106    1
   147   120   119    2
   148   109   106    1
   149   122   123    2
   150   122   121    1
   151   106   107    1
   152   119   118    1
   153   118   121    1
   154   118   117    1
   155   107   108    2
