@<TRIPOS>MOLECULE
tmp/1zysA01.pdb
 162 150 0 0 0
SMALL
GASTEIGER

@<TRIPOS>ATOM
      1  N          1.9740    3.3090   28.7160 N.3    11  GLN11      -0.1245
      2  CA         1.0280    2.9710   27.6460 C.3    11  GLN11       0.1566
      3  C          1.7520    2.6920   26.3560 C.2    11  GLN11       0.2260
      4  O          2.6800    3.4130   25.9750 O.2    11  GLN11      -0.2867
      5  CB         0.0510    4.1380   27.3930 C.3    11  GLN11       0.0367
      6  CG        -0.9690    3.8750   26.2430 C.3    11  GLN11       0.0905
      7  CD        -1.9580    5.0410   25.9810 C.2    11  GLN11       0.2608
      8  OE1       -1.6450    6.2170   26.1840 O.2    11  GLN11      -0.2717
      9  NE2       -3.1340    4.7040   25.4770 N.am   11  GLN11      -0.0878
     10  N          2.2110    3.0130   22.6780 N.3    13  LEU13      -0.1231
     11  CA         1.7850    3.9600   21.6590 C.3    13  LEU13       0.1693
     12  C          1.7730    3.3440   20.2990 C.2    13  LEU13       0.2592
     13  O          0.9180    3.7090   19.4900 O.2    13  LEU13      -0.2718
     14  CB         2.7150    5.2030   21.6270 C.3    13  LEU13       0.0284
     15  CG         2.6180    5.9670   22.9570 C.3    13  LEU13       0.0019
     16  CD1        3.4830    7.2560   22.8640 C.3    13  LEU13       0.0001
     17  CD2        1.1860    6.2920   23.2890 C.3    13  LEU13       0.0001
     18  N          2.7210    2.4430   20.0690 N.am   14  GLY14      -0.1957
     19  CA         2.8730    1.7550   18.7890 C.3    14  GLY14       0.1869
     20  C          3.7890    0.5310   18.9270 C.2    14  GLY14       0.2309
     21  O          4.6110    0.4530   19.8440 O.2    14  GLY14      -0.2863
     22  N         10.0660   -3.0930   14.2220 N.3    18  TYR18      -0.1241
     23  CA        11.1450   -2.2020   14.6590 C.3    18  TYR18       0.1605
     24  C         11.2800   -2.2060   16.1950 C.2    18  TYR18       0.2264
     25  O         12.3390   -1.8640   16.7210 O.2    18  TYR18      -0.2867
     26  CB        10.8890   -0.7520   14.2030 C.3    18  TYR18       0.0534
     27  CG         9.7320   -0.0980   14.9100 C.ar   18  TYR18      -0.0201
     28  CD1        9.9010    0.5180   16.1570 C.ar   18  TYR18      -0.0009
     29  CD2        8.4470   -0.1880   14.3950 C.ar   18  TYR18      -0.0009
     30  CE1        8.8060    1.0110   16.8620 C.ar   18  TYR18       0.0417
     31  CE2        7.3600    0.3010   15.0870 C.ar   18  TYR18       0.0417
     32  CZ         7.5410    0.8960   16.3200 C.ar   18  TYR18       0.1957
     33  OH         6.4460    1.3600   16.9900 O.3    18  TYR18      -0.2866
     34  N          6.9480    1.7640   20.9630 N.3    21  VAL21      -0.1245
     35  CA         7.1150    3.1280   21.4580 C.3    21  VAL21       0.1561
     36  C          6.1490    3.1830   22.6430 C.2    21  VAL21       0.2260
     37  O          4.9890    2.7720   22.4990 O.2    21  VAL21      -0.2867
     38  CB         6.6180    4.1950   20.4190 C.3    21  VAL21       0.0252
     39  CG1        6.6280    5.5570   21.0350 C.3    21  VAL21       0.0019
     40  CG2        7.5120    4.1790   19.1920 C.3    21  VAL21       0.0019
     41  N          7.7470   10.3140   24.5010 N.3    34  ALA34      -0.1245
     42  CA         7.5560    8.9790   23.9780 C.3    34  ALA34       0.1562
     43  C          8.9480    8.3160   24.0030 C.2    34  ALA34       0.2260
     44  O          9.9770    8.9650   23.7340 O.2    34  ALA34      -0.2867
     45  CB         7.0310    9.0760   22.4850 C.3    34  ALA34       0.0290
     46  N         11.0910    5.2820   22.2910 N.3    36  LYS36      -0.1245
     47  CA        11.1370    4.1770   21.3360 C.3    36  LYS36       0.1561
     48  C         12.1630    3.1670   21.9080 C.2    36  LYS36       0.2260
     49  O         13.2740    3.5420   22.2800 O.2    36  LYS36      -0.2867
     50  CB        11.5530    4.7050   19.9620 C.3    36  LYS36       0.0271
     51  CG        11.7270    3.6280   18.9040 C.3    36  LYS36       0.0035
     52  CD        12.0550    4.2330   17.5630 C.3    36  LYS36       0.0206
     53  CE        12.3710    3.1320   16.5340 C.3    36  LYS36       0.1093
     54  NZ        12.4920    3.7060   15.1580 N.3    36  LYS36      -0.1314
     55  N         19.6280    5.9410   12.3360 N.3    53  GLU53      -0.1245
     56  CA        18.4050    6.6710   12.6900 C.3    53  GLU53       0.1567
     57  C         18.6440    7.6970   13.8310 C.2    53  GLU53       0.2260
     58  O         18.0900    8.8040   13.8340 O.2    53  GLU53      -0.2867
     59  CB        17.3210    5.6760   13.0680 C.3    53  GLU53       0.0388
     60  CG        16.0210    6.3380   13.5440 C.3    53  GLU53       0.1160
     61  CD        14.9350    5.3210   13.8830 C.2    53  GLU53       0.3649
     62  OE1       14.9770    4.1760   13.3500 O.co2  53  GLU53      -0.2457
     63  OE2       14.0490    5.6770   14.6680 O.co2  53  GLU53      -0.2457
     64  N          9.0700   15.4200   14.7390 N.3    66  VAL66      -0.1245
     65  CA         9.1020   14.8770   16.1150 C.3    66  VAL66       0.1561
     66  C         10.4650   15.1130   16.7090 C.2    66  VAL66       0.2260
     67  O         11.5020   14.6080   16.2090 O.2    66  VAL66      -0.2867
     68  CB         8.6940   13.3740   16.1470 C.3    66  VAL66       0.0252
     69  CG1        8.9790   12.7740   17.5970 C.3    66  VAL66       0.0019
     70  CG2        7.2230   13.2400   15.8590 C.3    66  VAL66       0.0019
     71  N         11.7450   10.8050   22.5960 N.3    82  LEU82      -0.1231
     72  CA        11.1260   11.5900   21.5150 C.3    82  LEU82       0.1693
     73  C          9.9500   12.4150   21.9500 C.2    82  LEU82       0.2592
     74  O          9.2730   12.1040   22.9400 O.2    82  LEU82      -0.2718
     75  CB        10.5550   10.6050   20.4760 C.3    82  LEU82       0.0284
     76  CG        11.6140    9.6680   19.8260 C.3    82  LEU82       0.0019
     77  CD1       10.8950    8.4300   19.1310 C.3    82  LEU82       0.0001
     78  CD2       12.4450   10.4610   18.8600 C.3    82  LEU82       0.0001
     79  N          9.6930   13.4730   21.1910 N.am   83  GLU83      -0.1966
     80  CA         8.5370   14.3210   21.5150 C.3    83  GLU83       0.1733
     81  C          7.2200   13.5280   21.5370 C.2    83  GLU83       0.2616
     82  O          6.9350   12.7590   20.5850 O.2    83  GLU83      -0.2715
     83  CB         8.4840   15.4360   20.4810 C.3    83  GLU83       0.0429
     84  CG         7.2820   16.3430   20.6000 C.3    83  GLU83       0.1163
     85  CD         7.3090   17.4470   19.5300 C.2    83  GLU83       0.3649
     86  OE1        8.1700   17.3830   18.6610 O.co2  83  GLU83      -0.2457
     87  OE2        6.4370   18.3580   19.5640 O.co2  83  GLU83      -0.2457
     88  N          6.4420   13.6230   22.6130 N.am   84  TYR84      -0.1960
     89  CA         5.1550   12.9210   22.6410 C.3    84  TYR84       0.1771
     90  C          4.0720   13.7950   21.9730 C.2    84  TYR84       0.2620
     91  O          3.9290   14.9760   22.3130 O.2    84  TYR84      -0.2715
     92  CB         4.7110   12.6170   24.1110 C.3    84  TYR84       0.0574
     93  CG         3.2870   12.1160   24.2690 C.ar   84  TYR84      -0.0198
     94  CD1        2.8360   10.9720   23.6030 C.ar   84  TYR84      -0.0009
     95  CD2        2.3770   12.7720   25.1340 C.ar   84  TYR84      -0.0009
     96  CE1        1.5070   10.4590   23.7780 C.ar   84  TYR84       0.0417
     97  CE2        1.1160   12.3010   25.3150 C.ar   84  TYR84       0.0417
     98  CZ         0.6670   11.1540   24.6520 C.ar   84  TYR84       0.1957
     99  OH        -0.5940   10.6610   24.8580 O.3    84  TYR84      -0.2866
    100  N          3.3050   13.1880   21.0550 N.am   85  CYS85      -0.1954
    101  CA         2.2720   13.9000   20.2910 C.3    85  CYS85       0.1843
    102  C          0.9390   13.3210   20.7380 C.2    85  CYS85       0.2626
    103  O          0.4640   12.2700   20.2400 O.2    85  CYS85      -0.2714
    104  CB         2.5430   13.6450   18.7860 C.3    85  CYS85       0.0997
    105  SG         4.1230   14.3580   18.2980 S.3    85  CYS85      -0.0797
    106  N          0.2660   14.0190   21.6450 N.am   86  SER86      -0.1950
    107  CA        -0.9480   13.4360   22.2290 C.3    86  SER86       0.1924
    108  C         -2.1620   13.2760   21.3140 C.2    86  SER86       0.2314
    109  O         -3.0890   12.5480   21.6320 O.2    86  SER86      -0.2863
    110  CB        -1.3540   14.2090   23.5210 C.3    86  SER86       0.2116
    111  OG        -1.7030   15.5650   23.2040 O.3    86  SER86      -0.2180
    112  N         -2.0770   11.7040   18.5620 N.3    88  GLY88      -0.1210
    113  CA        -1.9050   10.4380   17.8750 C.3    88  GLY88       0.1956
    114  C         -1.5990   10.5850   16.3810 C.2    88  GLY88       0.2611
    115  O         -1.0190   11.6020   15.9570 O.2    88  GLY88      -0.2717
    116  N         -2.0570    9.6270   15.6020 N.am   89  GLU89      -0.1979
    117  CA        -1.7630    9.6080   14.1730 C.3    89  GLU89       0.1602
    118  C         -2.7400   10.2810   13.2660 C.2    89  GLU89       0.2287
    119  O         -3.9560   10.1890   13.4300 O.2    89  GLU89      -0.2864
    120  CB        -1.6280    8.1750   13.6700 C.3    89  GLU89       0.0415
    121  CG        -0.4830    7.3950   14.2940 C.3    89  GLU89       0.1163
    122  CD        -0.5130    5.8830   13.9820 C.2    89  GLU89       0.3649
    123  OE1       -1.2730    5.3930   13.0980 O.co2  89  GLU89      -0.2457
    124  OE2        0.3040    5.1920   14.6320 O.co2  89  GLU89      -0.2457
    125  N         -5.6920    8.2310   12.0040 N.3    92  ASP92      -0.1239
    126  CA        -6.9700    8.1690   12.7230 C.3    92  ASP92       0.1674
    127  C         -7.8810    9.3790   12.6090 C.2    92  ASP92       0.2266
    128  O         -8.9850    9.3740   13.1980 O.2    92  ASP92      -0.2867
    129  CB        -6.7510    7.8030   14.2060 C.3    92  ASP92       0.1410
    130  CG        -6.1860    6.3760   14.3730 C.2    92  ASP92       0.3668
    131  OD1       -6.5470    5.4130   13.6270 O.co2  92  ASP92      -0.2456
    132  OD2       -5.3770    6.2120   15.2870 O.co2  92  ASP92      -0.2456
    133  N          2.5710    7.8440    9.9690 N.3   133  ASN133     -0.1240
    134  CA         3.8480    8.4410   10.4380 C.3   133  ASN133      0.1653
    135  C          3.7420    9.8960   10.6720 C.2   133  ASN133      0.2266
    136  O          4.7430   10.4530   11.0970 O.2   133  ASN133     -0.2867
    137  CB         4.9170    8.2860    9.3220 C.3   133  ASN133      0.1155
    138  CG         5.3260    6.9620    9.2320 C.2   133  ASN133      0.2627
    139  OD1        5.1900    6.2040   10.2900 O.2   133  ASN133     -0.2716
    140  ND2        5.7770    6.5480    8.0800 N.am  133  ASN133     -0.0877
    141  N          2.1910   12.5570   12.8890 N.3   135  LEU135     -0.1245
    142  CA         1.5550   12.6410   14.2600 C.3   135  LEU135      0.1561
    143  C          1.0000   14.0220   14.5860 C.2   135  LEU135      0.2260
    144  O          1.3690   15.0500   13.9880 O.2   135  LEU135     -0.2867
    145  CB         2.5990   12.2500   15.3060 C.3   135  LEU135      0.0270
    146  CG         3.3070   10.9280   14.9790 C.3   135  LEU135      0.0019
    147  CD1        4.2870   10.6570   16.0750 C.3   135  LEU135      0.0001
    148  CD2        2.2450    9.7430   14.8530 C.3   135  LEU135      0.0001
    149  N          7.2380   11.7980   11.8460 N.3   145  SER145     -0.1202
    150  CA         7.8920   10.8210   12.6760 C.3   145  SER145      0.2020
    151  C          8.4860    9.6530   11.9280 C.2   145  SER145      0.2618
    152  O          8.2230    9.4830   10.7620 O.2   145  SER145     -0.2717
    153  CB         6.8640   10.2980   13.7050 C.3   145  SER145      0.2103
    154  OG         6.0680    9.2970   13.1350 O.3   145  SER145     -0.2182
    155  N          9.3060    8.8640   12.6450 N.am  146  ASP146     -0.1973
    156  CA         9.8960    7.6290   12.1380 C.3   146  ASP146      0.1709
    157  C         10.8920    7.8510   11.0170 C.2   146  ASP146      0.2293
    158  O         10.5320    7.7190    9.8400 O.2   146  ASP146     -0.2864
    159  CB         8.8310    6.6210   11.6550 C.3   146  ASP146      0.1436
    160  CG         9.3910    5.2300   11.4150 C.2   146  ASP146      0.3671
    161  OD1       10.6570    5.0910   11.3690 O.co2 146  ASP146     -0.2456
    162  OD2        8.5490    4.2920   11.2390 O.co2 146  ASP146     -0.2456
@<TRIPOS>BOND
     1   140   138   am
     2   138   137    1
     3   138   139    2
     4   137   134    1
     5   158   157    2
     6   133   134    1
     7   134   135    1
     8   135   136    2
     9   152   151    2
    10   157   156    1
    11   162   160   ar
    12   161   160   ar
    13   160   159    1
    14   159   156    1
    15   149   150    1
    16   151   155   am
    17   151   150    1
    18   125   126    1
    19   156   155    1
    20    55    56    1
    21   127   126    1
    22   127   128    2
    23   150   153    1
    24    56    59    1
    25    56    57    1
    26   126   129    1
    27   141   142    1
    28    59    60    1
    29   123   122   ar
    30   154   153    1
    31   118   119    2
    32   118   117    1
    33    62    61   ar
    34    60    61    1
    35   131   130   ar
    36   120   117    1
    37   120   121    1
    38    57    58    2
    39    61    63   ar
    40   122   121    1
    41   122   124   ar
    42   144   143    2
    43   117   116    1
    44    26    23    1
    45    26    27    1
    46   129   130    1
    47    22    23    1
    48   142   143    1
    49   142   145    1
    50   130   132   ar
    51    29    27   ar
    52    29    31   ar
    53    23    24    1
    54    64    65    1
    55   148   146    1
    56    27    28   ar
    57   146   145    1
    58   146   147    1
    59    31    32   ar
    60    54    53    1
    61   116   114   am
    62    70    68    1
    63   115   114    2
    64    65    68    1
    65    65    66    1
    66    68    69    1
    67    28    30   ar
    68    24    25    2
    69    67    66    2
    70    32    30   ar
    71    32    33    1
    72   114   113    1
    73    53    52    1
    74    52    51    1
    75   113   112    1
    76   105   104    1
    77    86    85   ar
    78   104   101    1
    79    19    20    1
    80    19    18    1
    81    78    76    1
    82    51    50    1
    83    20    21    2
    84    77    76    1
    85    40    38    1
    86    13    12    2
    87    85    87   ar
    88    85    84    1
    89    76    75    1
    90    50    47    1
    91    18    12   am
    92   103   102    2
    93   101   102    1
    94   101   100    1
    95    12    11    1
    96    38    39    1
    97    38    35    1
    98    75    72    1
    99    83    84    1
   100    83    80    1
   101    82    81    2
   102   102   106   am
   103    34    35    1
   104   100    90   am
   105    79    80    1
   106    79    73   am
   107   108   109    2
   108   108   107    1
   109    47    48    1
   110    47    46    1
   111    35    36    1
   112    72    73    1
   113    72    71    1
   114    80    81    1
   115    81    88   am
   116    14    11    1
   117    14    15    1
   118   106   107    1
   119    11    10    1
   120    48    49    2
   121    73    74    2
   122    90    91    2
   123    90    89    1
   124   107   110    1
   125    45    42    1
   126    37    36    2
   127    88    89    1
   128    89    92    1
   129    16    15    1
   130    15    17    1
   131   111   110    1
   132    94    96   ar
   133    94    93   ar
   134    44    43    2
   135    96    98   ar
   136    42    43    1
   137    42    41    1
   138    92    93    1
   139    93    95   ar
   140    98    99    1
   141    98    97   ar
   142    95    97   ar
   143     9     7   am
   144     4     3    2
   145     7     8    2
   146     7     6    1
   147     6     5    1
   148     3     2    1
   149     5     2    1
   150     2     1    1
