@<TRIPOS>MOLECULE
tmp/1zyuA00.pdb
 134 125 0 0 0
SMALL
GASTEIGER

@<TRIPOS>ATOM
      1  N         -1.4300   30.0310   51.5220 N.3    10  PRO10      -0.2102
      2  CA        -0.2700   30.1350   52.4110 C.3    10  PRO10       0.1504
      3  C          0.0780   28.7640   52.9930 C.2    10  PRO10       0.2576
      4  O         -0.7420   28.1340   53.6570 O.2    10  PRO10      -0.2718
      5  CB        -0.7280   31.1420   53.4720 C.3    10  PRO10       0.0282
      6  CG        -2.2260   31.0310   53.4440 C.3    10  PRO10       0.0208
      7  CD        -2.5200   30.9120   51.9710 C.3    10  PRO10       0.0893
      8  N          1.2970   28.3080   52.7150 N.am   11  GLY11      -0.1943
      9  CA         1.7530   27.0160   53.1910 C.3    11  GLY11       0.2014
     10  C          1.9920   26.0480   52.0450 C.2    11  GLY11       0.2640
     11  O          2.4510   24.9250   52.2550 O.2    11  GLY11      -0.2714
     12  N          1.6900   26.4840   50.8250 N.am   12  SER12      -0.1935
     13  CA         1.8660   25.6390   49.6490 C.3    12  SER12       0.2055
     14  C          3.2990   25.5840   49.1360 C.2    12  SER12       0.2644
     15  O          3.6010   24.8320   48.2150 O.2    12  SER12      -0.2714
     16  CB         0.9320   26.0940   48.5180 C.3    12  SER12       0.2130
     17  OG         1.1880   27.4240   48.1150 O.3    12  SER12      -0.2179
     18  N          4.1820   26.3790   49.7250 N.am   13  GLY13      -0.1939
     19  CA         5.5670   26.3650   49.2920 C.3    13  GLY13       0.2014
     20  C          6.0580   27.6100   48.5760 C.2    13  GLY13       0.2639
     21  O          7.2640   27.7780   48.4090 O.2    13  GLY13      -0.2714
     22  N          5.1350   28.4750   48.1570 N.am   14  LYS14      -0.1963
     23  CA         5.4630   29.7160   47.4460 C.3    14  LYS14       0.1728
     24  C          6.8760   30.2640   47.6710 C.2    14  LYS14       0.2617
     25  O          7.5170   30.7360   46.7270 O.2    14  LYS14      -0.2715
     26  CB         4.4500   30.8150   47.7950 C.3    14  LYS14       0.0311
     27  CG         3.1510   30.7890   47.0010 C.3    14  LYS14       0.0038
     28  CD         2.1960   31.8580   47.5120 C.3    14  LYS14       0.0206
     29  CE         1.8100   31.6000   48.9690 C.3    14  LYS14       0.1093
     30  NZ         0.9430   32.6680   49.5540 N.3    14  LYS14      -0.1314
     31  N          7.3560   30.2100   48.9120 N.am   15  SER15      -0.1936
     32  CA         8.6890   30.7140   49.2340 C.3    15  SER15       0.2055
     33  C          9.7820   29.6710   49.0110 C.2    15  SER15       0.2644
     34  O         10.7390   29.9170   48.2810 O.2    15  SER15      -0.2714
     35  CB         8.7380   31.2020   50.6810 C.3    15  SER15       0.2130
     36  OG         8.5120   30.1320   51.5780 O.3    15  SER15      -0.2179
     37  N          9.6480   28.5120   49.6470 N.am   16  THR16      -0.1936
     38  CA        10.6360   27.4490   49.4890 C.3    16  THR16       0.2028
     39  C         10.9080   27.2370   48.0040 C.2    16  THR16       0.2642
     40  O         12.0510   27.2740   47.5550 O.2    16  THR16      -0.2714
     41  CB        10.1300   26.1120   50.0770 C.3    16  THR16       0.1808
     42  OG1        9.9680   26.2340   51.4970 O.3    16  THR16      -0.2208
     43  CG2       11.1110   24.9950   49.7670 C.3    16  THR16       0.0379
     44  N          9.8300   27.0310   47.2520 N.am   17  ILE17      -0.1977
     45  CA         9.8880   26.7950   45.8130 C.3    17  ILE17       0.1596
     46  C         10.2510   28.0410   44.9990 C.2    17  ILE17       0.2287
     47  O         10.9820   27.9540   44.0100 O.2    17  ILE17      -0.2864
     48  CB         8.5400   26.2190   45.3280 C.3    17  ILE17       0.0276
     49  CG1        8.3170   24.8550   45.9870 C.3    17  ILE17       0.0022
     50  CG2        8.5220   26.1050   43.8130 C.3    17  ILE17       0.0022
     51  CD1        6.9760   24.2430   45.7010 C.3    17  ILE17       0.0001
     52  N          8.7080   38.7050   46.4070 N.3    31  ASP31      -0.1239
     53  CA         7.4560   38.4420   47.1050 C.3    31  ASP31       0.1674
     54  C          6.6140   39.7060   47.1970 C.2    31  ASP31       0.2266
     55  O          7.1220   40.7740   47.5220 O.2    31  ASP31      -0.2867
     56  CB         7.7140   37.9050   48.5090 C.3    31  ASP31       0.1410
     57  CG         6.4330   37.5000   49.2150 C.2    31  ASP31       0.3668
     58  OD1        5.7870   36.5240   48.7750 O.co2  31  ASP31      -0.2456
     59  OD2        6.0640   38.1640   50.2060 O.co2  31  ASP31      -0.2456
     60  N          4.1130   40.1600   49.2970 N.3    33  ASP33      -0.1239
     61  CA         3.8590   40.4760   50.6970 C.3    33  ASP33       0.1674
     62  C          5.0290   41.3020   51.2140 C.2    33  ASP33       0.2266
     63  O          4.8520   42.1900   52.0450 O.2    33  ASP33      -0.2867
     64  CB         3.7010   39.2030   51.5380 C.3    33  ASP33       0.1410
     65  CG         2.4480   38.4180   51.1840 C.2    33  ASP33       0.3668
     66  OD1        1.3970   39.0520   50.9290 O.co2  33  ASP33      -0.2456
     67  OD2        2.5150   37.1680   51.1740 O.co2  33  ASP33      -0.2456
     68  N         -1.3890   34.9510   49.4550 N.3    79  GLY79      -0.1225
     69  CA        -2.5270   34.0580   49.3700 C.3    79  GLY79       0.1811
     70  C         -3.7290   34.6450   48.6510 C.2    79  GLY79       0.2280
     71  O         -4.0400   34.2630   47.5240 O.2    79  GLY79      -0.2866
     72  N         -1.5890   18.8530   54.6120 N.3   105  GLU105     -0.1245
     73  CA        -0.2580   19.4560   54.6470 C.3   105  GLU105      0.1567
     74  C         -0.2760   20.9700   54.8070 C.2   105  GLU105      0.2260
     75  O          0.5230   21.5240   55.5630 O.2   105  GLU105     -0.2867
     76  CB         0.5370   19.0870   53.3920 C.3   105  GLU105      0.0388
     77  CG         1.5500   17.9720   53.6270 C.3   105  GLU105      0.1160
     78  CD         2.6420   18.3530   54.6300 C.2   105  GLU105      0.3649
     79  OE1        3.5940   19.0640   54.2420 O.co2 105  GLU105     -0.2457
     80  OE2        2.5480   17.9470   55.8100 O.co2 105  GLU105     -0.2457
     81  N          2.0600   22.7940   57.5760 N.3   109  ARG109     -0.1245
     82  CA         3.1940   23.6420   57.1970 C.3   109  ARG109      0.1563
     83  C          3.0280   25.0910   57.6530 C.2   109  ARG109      0.2260
     84  O          3.9070   25.9190   57.4260 O.2   109  ARG109     -0.2867
     85  CB         3.3750   23.6300   55.6770 C.3   109  ARG109      0.0307
     86  CG         3.6920   22.2740   55.0820 C.3   109  ARG109      0.0489
     87  CD         3.7160   22.3350   53.5690 C.3   109  ARG109      0.2205
     88  NE         4.0190   21.0330   52.9860 N.pl3 109  ARG109     -0.0865
     89  CZ         3.9820   20.7600   51.6840 C.cat 109  ARG109      0.5346
     90  NH1        3.6540   21.7040   50.8110 N.pl3 109  ARG109      0.1354
     91  NH2        4.2670   19.5380   51.2540 N.pl3 109  ARG109      0.1354
     92  N         -0.0730   35.3250   60.8250 N.3   116  ARG116     -0.1245
     93  CA        -0.9640   35.2120   59.6670 C.3   116  ARG116      0.1563
     94  C         -2.3580   35.7200   60.0210 C.2   116  ARG116      0.2260
     95  O         -3.1380   35.0290   60.6750 O.2   116  ARG116     -0.2867
     96  CB        -1.0790   33.7600   59.1980 C.3   116  ARG116      0.0307
     97  CG         0.2260   33.1120   58.8230 C.3   116  ARG116      0.0489
     98  CD         0.0550   31.6200   58.5830 C.3   116  ARG116      0.2205
     99  NE         1.3550   30.9730   58.5010 N.pl3 116  ARG116     -0.0865
    100  CZ         2.2520   31.2360   57.5580 C.cat 116  ARG116      0.5346
    101  NH1        1.9760   32.1270   56.6140 N.pl3 116  ARG116      0.1354
    102  NH2        3.4350   30.6340   57.5790 N.pl3 116  ARG116      0.1354
    103  N          2.3830   20.3460   45.1900 N.3   149  THR149     -0.1218
    104  CA         3.5380   20.3930   46.0880 C.3   149  THR149      0.1862
    105  C          3.2170   19.6280   47.3560 C.2   149  THR149      0.2287
    106  O          3.9450   19.7220   48.3450 O.2   149  THR149     -0.2866
    107  CB         3.9010   21.8340   46.5180 C.3   149  THR149      0.1770
    108  OG1        2.9350   22.3040   47.4650 O.3   149  THR149     -0.2211
    109  CG2        3.9380   22.7720   45.3170 C.3   149  THR149      0.0375
    110  N          5.7270   15.7130   48.2060 N.3   152  ARG152     -0.1245
    111  CA         6.8630   15.9930   47.3470 C.3   152  ARG152      0.1563
    112  C          8.0160   16.6070   48.1270 C.2   152  ARG152      0.2260
    113  O          7.8470   17.0730   49.2570 O.2   152  ARG152     -0.2867
    114  CB         6.4390   16.9280   46.2110 C.3   152  ARG152      0.0307
    115  CG         7.0140   16.5550   44.8540 C.3   152  ARG152      0.0489
    116  CD         5.9120   16.3730   43.8100 C.3   152  ARG152      0.2205
    117  NE         6.4440   16.0280   42.4900 N.pl3 152  ARG152     -0.0865
    118  CZ         5.7060   15.8720   41.3900 C.cat 152  ARG152      0.5346
    119  NH1        4.3870   16.0290   41.4310 N.pl3 152  ARG152      0.1354
    120  NH2        6.2920   15.5590   40.2390 N.pl3 152  ARG152      0.1354
    121  N         10.6330   19.5670   48.3640 N.3   154  PRO154     -0.2116
    122  CA        10.7470   20.9530   47.9000 C.3   154  PRO154      0.1372
    123  C         11.5520   21.1230   46.6060 C.2   154  PRO154      0.2244
    124  O         11.2540   21.9990   45.7890 O.2   154  PRO154     -0.2868
    125  CB        11.3850   21.6480   49.0940 C.3   154  PRO154      0.0268
    126  CG        10.6920   20.9780   50.2300 C.3   154  PRO154      0.0207
    127  CD        10.7350   19.5050   49.8330 C.3   154  PRO154      0.0892
    128  N          9.9050   19.3020   43.2900 N.3   157  VAL157     -0.1245
    129  CA         8.7930   20.0770   42.7660 C.3   157  VAL157      0.1561
    130  C          9.3460   21.0500   41.7400 C.2   157  VAL157      0.2260
    131  O          8.7720   21.2300   40.6670 O.2   157  VAL157     -0.2867
    132  CB         8.1010   20.8700   43.8800 C.3   157  VAL157      0.0252
    133  CG1        6.9600   21.6930   43.3000 C.3   157  VAL157      0.0019
    134  CG2        7.5970   19.9140   44.9500 C.3   157  VAL157      0.0019
@<TRIPOS>BOND
     1   120   118    1
     2   131   130    2
     3   118   119    1
     4   118   117    2
     5   130   129    1
     6   117   116    1
     7   129   128    1
     8   129   132    1
     9   133   132    1
    10   116   115    1
    11    50    48    1
    12   132   134    1
    13    47    46    2
    14   115   114    1
    15    46    45    1
    16   103   104    1
    17   109   107    1
    18    48    45    1
    19    48    49    1
    20    51    49    1
    21   124   123    2
    22    45    44    1
    23   104   107    1
    24   104   105    1
    25   114   111    1
    26    52    53    1
    27   107   108    1
    28   123   122    1
    29    25    24    2
    30    27    28    1
    31    27    26    1
    32    53    54    1
    33    53    56    1
    34    54    55    2
    35    44    39   am
    36   111   112    1
    37   111   110    1
    38   105   106    2
    39    23    24    1
    40    23    26    1
    41    23    22    1
    42    28    29    1
    43    71    70    2
    44    40    39    2
    45    24    31   am
    46   122   121    1
    47   122   125    1
    48    39    38    1
    49    17    16    1
    50   112   113    2
    51    22    20   am
    52    15    14    2
    53    34    33    2
    54   121   127    1
    55    21    20    2
    56    56    57    1
    57    16    13    1
    58    20    19    1
    59    70    69    1
    60    58    57   ar
    61    31    32    1
    62    29    30    1
    63    33    32    1
    64    33    37   am
    65   125   126    1
    66    14    13    1
    67    14    18   am
    68    57    59   ar
    69    32    35    1
    70    19    18    1
    71    60    61    1
    72    69    68    1
    73    38    37    1
    74    38    41    1
    75    13    12    1
    76    43    41    1
    77   127   126    1
    78    41    42    1
    79    35    36    1
    80    61    62    1
    81    61    64    1
    82    90    89    1
    83    12    10   am
    84    66    65   ar
    85    67    65   ar
    86    65    64    1
    87    62    63    2
    88    91    89    1
    89     1     7    1
    90     1     2    1
    91    89    88    2
    92     7     6    1
    93    10    11    2
    94    10     9    1
    95     2     3    1
    96     2     5    1
    97     8     3   am
    98     8     9    1
    99    88    87    1
   100     3     4    2
   101    76    77    1
   102    76    73    1
   103     6     5    1
   104    87    86    1
   105    77    78    1
   106    79    78   ar
   107    72    73    1
   108    78    80   ar
   109    73    74    1
   110    74    75    2
   111    86    85    1
   112    85    82    1
   113   101   100    1
   114    82    81    1
   115    82    83    1
   116    84    83    2
   117   100   102    1
   118   100    99    2
   119    99    98    1
   120    98    97    1
   121    97    96    1
   122    96    93    1
   123    93    94    1
   124    93    92    1
   125    94    95    2
