@<TRIPOS>MOLECULE
tmp/1zyxA00.pdb
 111 108 0 0 0
SMALL
GASTEIGER

@<TRIPOS>ATOM
      1  N         10.9980   16.4250   -5.2810 N.3     2  LEU2       -0.1231
      2  CA         9.6030   16.7680   -5.0350 C.3     2  LEU2        0.1693
      3  C          8.8490   15.6640   -4.2940 C.2     2  LEU2        0.2591
      4  O          7.8490   15.9260   -3.6250 O.2     2  LEU2       -0.2718
      5  CB         8.9050   17.0850   -6.3610 C.3     2  LEU2        0.0284
      6  CG         9.0350   18.5150   -6.8980 C.3     2  LEU2        0.0019
      7  CD1       10.4470   19.0310   -6.7290 C.3     2  LEU2        0.0001
      8  CD2        8.6440   18.5280   -8.3640 C.3     2  LEU2        0.0001
      9  N          9.3300   14.4330   -4.4090 N.am    3  LEU3       -0.1980
     10  CA         8.6950   13.3040   -3.7360 C.3     3  LEU3        0.1596
     11  C          8.8840   13.3740   -2.2200 C.2     3  LEU3        0.2287
     12  O          7.9480   13.1220   -1.4640 O.2     3  LEU3       -0.2864
     13  CB         9.2500   11.9870   -4.2840 C.3     3  LEU3        0.0297
     14  CG         8.5050   11.3910   -5.4870 C.3     3  LEU3        0.0022
     15  CD1        7.2840   10.6290   -4.9960 C.3     3  LEU3        0.0001
     16  CD2        8.0940   12.4900   -6.4640 C.3     3  LEU3        0.0001
     17  N          9.8000   16.1810   -0.5790 N.3     5  PHE5       -0.1227
     18  CA         9.2590   17.4640   -0.1620 C.3     5  PHE5        0.1736
     19  C          7.7460   17.3800    0.0580 C.2     5  PHE5        0.2596
     20  O          7.2340   17.8700    1.0650 O.2     5  PHE5       -0.2718
     21  CB         9.6010   18.5290   -1.2090 C.3     5  PHE5        0.0547
     22  CG         9.3070   19.9400   -0.7690 C.ar    5  PHE5       -0.0202
     23  CD1        9.4980   20.3300    0.5550 C.ar    5  PHE5       -0.0042
     24  CD2        8.8680   20.8860   -1.6840 C.ar    5  PHE5       -0.0042
     25  CE1        9.2550   21.6410    0.9560 C.ar    5  PHE5       -0.0003
     26  CE2        8.6230   22.2020   -1.2910 C.ar    5  PHE5       -0.0003
     27  CZ         8.8170   22.5780    0.0330 C.ar    5  PHE5       -0.0000
     28  N          7.0370   16.7470   -0.8750 N.am    6  GLY6       -0.1957
     29  CA         5.5940   16.6130   -0.7520 C.3     6  GLY6        0.1869
     30  C          5.1770   15.7990    0.4600 C.2     6  GLY6        0.2309
     31  O          4.1860   16.1080    1.1170 O.2     6  GLY6       -0.2863
     32  N          5.7210   18.0130    3.6270 N.3     9  ILE9       -0.1245
     33  CA         4.6570   19.0050    3.7550 C.3     9  ILE9        0.1561
     34  C          3.3650   18.3670    4.2870 C.2     9  ILE9        0.2260
     35  O          2.7390   18.8790    5.2180 O.2     9  ILE9       -0.2867
     36  CB         4.3750   19.6670    2.3830 C.3     9  ILE9        0.0252
     37  CG1        5.6180   20.4430    1.9280 C.3     9  ILE9        0.0019
     38  CG2        3.1580   20.5910    2.4720 C.3     9  ILE9        0.0019
     39  CD1        5.5230   21.0030    0.5190 C.3     9  ILE9        0.0001
     40  N          0.7040   18.8560   -0.9750 N.3    17  ALA17      -0.1231
     41  CA         1.5050   19.8360   -1.7080 C.3    17  ALA17       0.1694
     42  C          0.7190   20.3500   -2.9060 C.2    17  ALA17       0.2591
     43  O          0.6290   21.5580   -3.1330 O.2    17  ALA17      -0.2718
     44  CB         2.8070   19.2080   -2.1610 C.3    17  ALA17       0.0304
     45  N          0.1680   19.4200   -3.6780 N.am   18  ILE18      -0.1980
     46  CA        -0.6560   19.7570   -4.8340 C.3    18  ILE18       0.1595
     47  C         -2.0750   19.4650   -4.3480 C.2    18  ILE18       0.2287
     48  O         -2.3520   18.3620   -3.8840 O.2    18  ILE18      -0.2864
     49  CB        -0.3660   18.8280   -6.0430 C.3    18  ILE18       0.0276
     50  CG1        1.1280   18.8070   -6.3600 C.3    18  ILE18       0.0022
     51  CG2       -1.1480   19.3030   -7.2620 C.3    18  ILE18       0.0022
     52  CD1        1.6570   20.0990   -6.9280 C.3    18  ILE18       0.0001
     53  N         -0.1230   24.0030   -2.0650 N.3    21  TYR21      -0.1227
     54  CA         1.0670   24.8420   -2.0850 C.3    21  TYR21       0.1736
     55  C          1.7070   25.0150   -3.4650 C.2    21  TYR21       0.2596
     56  O          2.6920   25.7550   -3.5860 O.2    21  TYR21      -0.2718
     57  CB         2.0800   24.3240   -1.0820 C.3    21  TYR21       0.0548
     58  CG         1.6360   24.5220    0.3450 C.ar   21  TYR21      -0.0200
     59  CD1        1.6350   25.7780    0.9510 C.ar   21  TYR21      -0.0009
     60  CD2        1.2210   23.4240    1.0960 C.ar   21  TYR21      -0.0009
     61  CE1        1.2350   25.9340    2.2730 C.ar   21  TYR21       0.0417
     62  CE2        0.8160   23.5680    2.4160 C.ar   21  TYR21       0.0417
     63  CZ         0.8280   24.8260    2.9990 C.ar   21  TYR21       0.1957
     64  OH         0.4420   24.9690    4.3070 O.3    21  TYR21      -0.2866
     65  N          1.1610   24.3910   -4.5060 N.am   22  SER22      -0.1952
     66  CA         1.7880   24.4470   -5.8360 C.3    22  SER22       0.1924
     67  C          1.3950   25.6370   -6.7030 C.2    22  SER22       0.2314
     68  O          2.0490   25.9220   -7.7040 O.2    22  SER22      -0.2863
     69  CB         1.4980   23.1480   -6.5890 C.3    22  SER22       0.2116
     70  OG         0.1050   22.9180   -6.6990 O.3    22  SER22      -0.2180
     71  N          4.9680   27.9040   -6.3880 N.3    29  GLY29      -0.1210
     72  CA         4.6710   27.4680   -7.7220 C.3    29  GLY29       0.1956
     73  C          5.8610   27.7960   -8.6260 C.2    29  GLY29       0.2612
     74  O          6.9700   28.0250   -8.1480 O.2    29  GLY29      -0.2717
     75  N          5.6370   27.7960   -9.9300 N.am   30  TRP30      -0.1962
     76  CA         6.7270   28.0310  -10.8870 C.3    30  TRP30       0.1771
     77  C          7.3160   29.4190  -10.8090 C.2    30  TRP30       0.2620
     78  O          6.5900   30.4120  -10.8730 O.2    30  TRP30      -0.2715
     79  CB         6.2370   27.7960  -12.3040 C.3    30  TRP30       0.0590
     80  CG         7.3430   27.4080  -13.2430 C.ar   30  TRP30       0.0006
     81  CD1        8.3520   28.2060  -13.7100 C.ar   30  TRP30       0.0946
     82  CD2        7.5570   26.1140  -13.8150 C.ar   30  TRP30       0.0152
     83  NE1        9.1810   27.4850  -14.5400 N.ar   30  TRP30      -0.2442
     84  CE2        8.7150   26.1980  -14.6210 C.ar   30  TRP30       0.0810
     85  CE3        6.8810   24.8880  -13.7240 C.ar   30  TRP30       0.0012
     86  CZ2        9.2140   25.1010  -15.3340 C.ar   30  TRP30       0.0191
     87  CZ3        7.3760   23.7960  -14.4310 C.ar   30  TRP30       0.0001
     88  CH2        8.5330   23.9110  -15.2270 C.ar   30  TRP30       0.0015
     89  N          8.6310   29.5060  -10.6740 N.am   31  GLY31      -0.1954
     90  CA         9.3110   30.7760  -10.5910 C.3    31  GLY31       0.1869
     91  C          8.7130   31.6480   -9.4930 C.2    31  GLY31       0.2309
     92  O          8.3000   31.1370   -8.4530 O.2    31  GLY31      -0.2863
     93  N         12.2820   29.6470    0.3400 N.3    47  HIS47      -0.1241
     94  CA        12.5810   28.3140   -0.1800 C.3    47  HIS47       0.1621
     95  C         13.1830   28.4400   -1.5840 C.2    47  HIS47       0.2264
     96  O         14.1600   27.7590   -1.8980 O.2    47  HIS47      -0.2867
     97  CB        11.2940   27.4970   -0.2120 C.3    47  HIS47       0.0745
     98  CG        11.5160   26.0440   -0.6290 C.ar   47  HIS47       0.0817
     99  ND1       11.1400   25.5630   -1.8660 N.ar   47  HIS47      -0.2268
    100  CD2       12.0930   25.0030    0.0220 C.ar   47  HIS47       0.1154
    101  CE1       11.4740   24.2860   -1.9580 C.ar   47  HIS47       0.1986
    102  NE2       12.0530   23.9220   -0.8270 N.ar   47  HIS47      -0.2212
    103  N         14.7560   19.2990   -7.6520 N.3    60  LYS60      -0.1245
    104  CA        13.5270   18.6770   -8.1190 C.3    60  LYS60       0.1561
    105  C         13.6270   17.1700   -8.3130 C.2    60  LYS60       0.2260
    106  O         12.6540   16.4510   -8.0900 O.2    60  LYS60      -0.2867
    107  CB        13.0960   19.3160   -9.4390 C.3    60  LYS60       0.0271
    108  CG        11.7630   18.8240   -9.9620 C.3    60  LYS60       0.0035
    109  CD        11.5440   19.2430  -11.4130 C.3    60  LYS60       0.0206
    110  CE        12.3180   18.3480  -12.3740 C.3    60  LYS60       0.1093
    111  NZ        11.7590   16.9590  -12.4140 N.3    60  LYS60      -0.1314
@<TRIPOS>BOND
     1    86    88   ar
     2    86    84   ar
     3    88    87   ar
     4    84    83   ar
     5    84    82   ar
     6    83    81   ar
     7    87    85   ar
     8    82    85   ar
     9    82    80   ar
    10    81    80   ar
    11    80    79    1
    12   111   110    1
    13   110   109    1
    14    79    76    1
    15   109   108    1
    16    76    77    1
    17    76    75    1
    18    78    77    2
    19    77    89   am
    20    89    90    1
    21    90    91    1
    22   108   107    1
    23    75    73   am
    24    91    92    2
    25   107   104    1
    26    73    74    2
    27    73    72    1
    28     8     6    1
    29   105   104    1
    30   105   106    2
    31   104   103    1
    32    72    71    1
    33    68    67    2
    34    51    49    1
    35    52    50    1
    36     6     7    1
    37     6     5    1
    38    67    66    1
    39    70    69    1
    40    69    66    1
    41    16    14    1
    42     5     2    1
    43    50    49    1
    44    49    46    1
    45    66    65    1
    46    14    15    1
    47    14    13    1
    48     1     2    1
    49     2     3    1
    50    46    47    1
    51    46    45    1
    52    65    55   am
    53     9     3   am
    54     9    10    1
    55    47    48    2
    56     3     4    2
    57    13    10    1
    58    10    11    1
    59    45    42   am
    60    56    55    2
    61    55    54    1
    62    43    42    2
    63    42    41    1
    64    11    12    2
    65    44    41    1
    66    54    53    1
    67    54    57    1
    68   101    99   ar
    69   101   102   ar
    70    96    95    2
    71    99    98   ar
    72    41    40    1
    73    24    26   ar
    74    24    22   ar
    75    95    94    1
    76    26    27   ar
    77    21    22    1
    78    21    18    1
    79    57    58    1
    80    28    29    1
    81    28    19   am
    82   102   100   ar
    83    22    23   ar
    84    29    30    1
    85    98    97    1
    86    98   100   ar
    87    17    18    1
    88    97    94    1
    89    94    93    1
    90    18    19    1
    91    27    25   ar
    92    19    20    2
    93    58    59   ar
    94    58    60   ar
    95    30    31    2
    96    39    37    1
    97    23    25   ar
    98    59    61   ar
    99    60    62   ar
   100    37    36    1
   101    61    63   ar
   102    36    38    1
   103    36    33    1
   104    62    63   ar
   105    63    64    1
   106    32    33    1
   107    33    34    1
   108    34    35    2
