@<TRIPOS>MOLECULE
tmp/1zz1C00.pdb
 148 142 0 0 0
SMALL
GASTEIGER

@<TRIPOS>ATOM
      1  N         -2.7240   21.5910  -15.2770 N.3    20  LEU20      -0.1245
      2  CA        -2.3640   21.7080  -13.8790 C.3    20  LEU20       0.1561
      3  C         -0.8650   21.9570  -13.8450 C.2    20  LEU20       0.2260
      4  O         -0.3980   23.0770  -13.5920 O.2    20  LEU20      -0.2867
      5  CB        -2.7580   20.4470  -13.1040 C.3    20  LEU20       0.0270
      6  CG        -2.3770   20.3740  -11.6300 C.3    20  LEU20       0.0019
      7  CD1       -2.8810   21.6120  -10.8520 C.3    20  LEU20       0.0001
      8  CD2       -2.9490   19.0790  -11.0250 C.3    20  LEU20       0.0001
      9  N          7.6100   25.0070   -6.9220 N.3    97  ASP97      -0.1239
     10  CA         6.9400   23.7000   -6.7800 C.3    97  ASP97       0.1674
     11  C          6.7550   22.9920   -8.1300 C.2    97  ASP97       0.2266
     12  O          6.1040   21.9460   -8.1930 O.2    97  ASP97      -0.2867
     13  CB         5.5940   23.8140   -6.0230 C.3    97  ASP97       0.1410
     14  CG         4.5530   24.6230   -6.7870 C.2    97  ASP97       0.3668
     15  OD1        4.8980   25.1560   -7.8620 O.co2  97  ASP97      -0.2456
     16  OD2        3.3890   24.7000   -6.3250 O.co2  97  ASP97      -0.2456
     17  N          4.9780   23.8220  -10.5090 N.3    99  ILE99      -0.1245
     18  CA         3.5750   23.9940  -10.9300 C.3    99  ILE99       0.1561
     19  C          3.0860   25.4520  -10.9300 C.2    99  ILE99       0.2260
     20  O          2.4580   25.9010  -11.8940 O.2    99  ILE99      -0.2867
     21  CB         2.6210   23.1800  -10.0410 C.3    99  ILE99       0.0252
     22  CG1        2.8620   21.6740  -10.1960 C.3    99  ILE99       0.0019
     23  CG2        1.1530   23.5060  -10.3660 C.3    99  ILE99       0.0019
     24  CD1        2.3960   21.0910  -11.4950 C.3    99  ILE99       0.0001
     25  N         -4.5770   33.3780   -5.5110 N.3   139  PRO139     -0.2116
     26  CA        -4.9620   33.0620   -4.1480 C.3   139  PRO139      0.1372
     27  C         -3.7360   32.9850   -3.2300 C.2   139  PRO139      0.2244
     28  O         -2.6100   33.1400   -3.6830 O.2   139  PRO139     -0.2868
     29  CB        -5.6260   31.6580   -4.2850 C.3   139  PRO139      0.0268
     30  CG        -4.8820   31.0520   -5.4380 C.3   139  PRO139      0.0207
     31  CD        -4.6020   32.1930   -6.3970 C.3   139  PRO139      0.0892
     32  N         -3.6450   30.8550    0.2970 N.3   141  HIS141     -0.1226
     33  CA        -3.5460   30.0910    1.5700 C.3   141  HIS141      0.1752
     34  C         -2.4990   28.9710    1.6400 C.2   141  HIS141      0.2596
     35  O         -2.1730   28.5430    2.7560 O.2   141  HIS141     -0.2718
     36  CB        -4.9200   29.5760    2.0480 C.3   141  HIS141      0.0759
     37  CG        -5.4700   28.4690    1.2140 C.ar  141  HIS141      0.0818
     38  ND1       -6.3630   27.5640    1.7170 N.ar  141  HIS141     -0.2268
     39  CD2       -5.2650   28.1290   -0.0780 C.ar  141  HIS141      0.1154
     40  CE1       -6.6800   26.6830    0.7720 C.ar  141  HIS141      0.1986
     41  NE2       -6.0190   27.0030   -0.3290 N.ar  141  HIS141     -0.2212
     42  N         -1.9720   28.5250    0.4920 N.am  142  HIS142     -0.1975
     43  CA        -0.9150   27.4920    0.4980 C.3   142  HIS142      0.1656
     44  C          0.4930   28.0660    0.6800 C.2   142  HIS142      0.2291
     45  O          1.4310   27.2970    0.9050 O.2   142  HIS142     -0.2864
     46  CB        -0.8840   26.6560   -0.7930 C.3   142  HIS142      0.0771
     47  CG        -2.0880   25.7920   -0.9740 C.ar  142  HIS142      0.0820
     48  ND1       -2.5750   24.9780    0.0260 N.ar  142  HIS142     -0.2267
     49  CD2       -2.9130   25.6300   -2.0370 C.ar  142  HIS142      0.1154
     50  CE1       -3.6360   24.3200   -0.4300 C.ar  142  HIS142      0.1986
     51  NE2       -3.8660   24.7120   -1.6730 N.ar  142  HIS142     -0.2212
     52  N          3.3230   28.1990   -3.2980 N.3   149  MET149     -0.1230
     53  CA         2.8340   26.8320   -3.4360 C.3   149  MET149      0.1702
     54  C          1.3840   26.8250   -3.8980 C.2   149  MET149      0.2593
     55  O          0.6210   27.7120   -3.5400 O.2   149  MET149     -0.2718
     56  CB         2.9410   26.1280   -2.0700 C.3   149  MET149      0.0401
     57  CG         2.5250   24.6880   -2.0630 C.3   149  MET149      0.0596
     58  SD         2.7960   24.1120   -0.3860 S.3   149  MET149     -0.1393
     59  CE         2.0370   22.4860   -0.5010 C.3   149  MET149      0.0692
     60  N          1.0040   25.8070   -4.6840 N.am  150  GLY150     -0.1942
     61  CA        -0.4290   25.5770   -4.9080 C.3   150  GLY150      0.2014
     62  C         -1.1680   26.7660   -5.5030 C.2   150  GLY150      0.2639
     63  O         -2.2570   27.0830   -5.0520 O.2   150  GLY150     -0.2714
     64  N         -0.5630   27.4100   -6.5020 N.am  151  PHE151     -0.1959
     65  CA        -1.1390   28.6100   -7.1880 C.3   151  PHE151      0.1771
     66  C         -0.9820   29.9200   -6.4000 C.2   151  PHE151      0.2619
     67  O         -1.4020   30.9870   -6.8770 O.2   151  PHE151     -0.2715
     68  CB        -2.6420   28.4590   -7.5440 C.3   151  PHE151      0.0574
     69  CG        -3.0290   27.1470   -8.2090 C.ar  151  PHE151     -0.0200
     70  CD1       -4.3180   26.6470   -8.0340 C.ar  151  PHE151     -0.0042
     71  CD2       -2.1450   26.4560   -9.0340 C.ar  151  PHE151     -0.0042
     72  CE1       -4.7110   25.4680   -8.6590 C.ar  151  PHE151     -0.0003
     73  CE2       -2.5070   25.2400   -9.6470 C.ar  151  PHE151     -0.0003
     74  CZ        -3.8130   24.7660   -9.4740 C.ar  151  PHE151     -0.0000
     75  N         -0.3540   29.8350   -5.2260 N.am  152  CYS152     -0.1968
     76  CA        -0.2690   30.9670   -4.3000 C.3   152  CYS152      0.1712
     77  C          1.1310   31.5270   -4.2700 C.2   152  CYS152      0.2296
     78  O          2.0800   30.7980   -3.9880 O.2   152  CYS152     -0.2864
     79  CB        -0.6640   30.5040   -2.8850 C.3   152  CYS152      0.0983
     80  SG        -2.3450   29.7740   -2.7830 S.3   152  CYS152     -0.0798
     81  N        -11.9560   27.3690    1.8750 N.3   179  ASP179     -0.1239
     82  CA       -11.4630   26.7360    0.6530 C.3   179  ASP179      0.1674
     83  C        -11.3730   25.2310    1.0040 C.2   179  ASP179      0.2266
     84  O        -11.0450   24.8600    2.1590 O.2   179  ASP179     -0.2867
     85  CB       -10.1030   27.3320    0.2880 C.3   179  ASP179      0.1410
     86  CG        -9.4730   26.6950   -0.9360 C.2   179  ASP179      0.3668
     87  OD1       -9.1240   25.4980   -0.8600 O.co2 179  ASP179     -0.2456
     88  OD2       -9.2580   27.3880   -1.9600 O.co2 179  ASP179     -0.2456
     89  N         -9.4030   22.9640    0.2300 N.3   181  HIS181     -0.1241
     90  CA        -8.0220   22.4530    0.4510 C.3   181  HIS181      0.1621
     91  C         -7.4480   23.0040    1.7520 C.2   181  HIS181      0.2264
     92  O         -7.8770   24.0430    2.2360 O.2   181  HIS181     -0.2867
     93  CB        -7.1640   22.8320   -0.7270 C.3   181  HIS181      0.0745
     94  CG        -7.7380   22.3490   -2.0170 C.ar  181  HIS181      0.0817
     95  ND1       -8.3590   23.1860   -2.9270 N.ar  181  HIS181     -0.2268
     96  CD2       -7.8820   21.0910   -2.4940 C.ar  181  HIS181      0.1154
     97  CE1       -8.8130   22.4600   -3.9400 C.ar  181  HIS181      0.1986
     98  NE2       -8.5550   21.1870   -3.6930 N.ar  181  HIS181     -0.2212
     99  N         -5.5250   18.4320   -0.8430 N.3   207  PHE207     -0.1241
    100  CA        -4.2380   19.0710   -1.1790 C.3   207  PHE207      0.1605
    101  C         -3.9010   20.0460   -0.0760 C.2   207  PHE207      0.2264
    102  O         -4.7860   20.7430    0.3930 O.2   207  PHE207     -0.2867
    103  CB        -4.2900   19.8490   -2.5050 C.3   207  PHE207      0.0534
    104  CG        -2.9340   20.3270   -2.9320 C.ar  207  PHE207     -0.0203
    105  CD1       -2.5150   21.6130   -2.6450 C.ar  207  PHE207     -0.0042
    106  CD2       -2.0300   19.4280   -3.5290 C.ar  207  PHE207     -0.0042
    107  CE1       -1.2140   22.0120   -3.0030 C.ar  207  PHE207     -0.0003
    108  CE2       -0.7680   19.8310   -3.8700 C.ar  207  PHE207     -0.0003
    109  CZ        -0.3690   21.1240   -3.5930 C.ar  207  PHE207     -0.0000
    110  N         -0.8580   16.8020    0.0100 N.3   209  PRO209     -0.2116
    111  CA        -0.9980   15.4000    0.3910 C.3   209  PRO209      0.1372
    112  C         -0.7300   14.9920    1.8530 C.2   209  PRO209      0.2244
    113  O         -1.2840   14.0150    2.3400 O.2   209  PRO209     -0.2868
    114  CB        -0.0200   14.6790   -0.5580 C.3   209  PRO209      0.0268
    115  CG         0.8920   15.7290   -1.0590 C.3   209  PRO209      0.0207
    116  CD         0.1280   17.0100   -1.0700 C.3   209  PRO209      0.0892
    117  N        -14.2790   26.0160   -3.8450 N.3   267  ASP267     -0.1239
    118  CA       -13.9540   24.7030   -4.4200 C.3   267  ASP267      0.1674
    119  C        -14.5550   23.5330   -3.6470 C.2   267  ASP267      0.2266
    120  O        -14.4280   22.3670   -4.0770 O.2   267  ASP267     -0.2867
    121  CB       -12.4440   24.5150   -4.6510 C.3   267  ASP267      0.1410
    122  CG       -11.5660   25.1570   -3.5610 C.2   267  ASP267      0.3668
    123  OD1      -12.0320   25.6010   -2.4920 O.co2 267  ASP267     -0.2456
    124  OD2      -10.3460   25.1760   -3.8380 O.co2 267  ASP267     -0.2456
    125  N        -11.8980   20.1310   -8.5590 N.3   274  LEU274     -0.1245
    126  CA       -10.7040   19.9280   -7.7430 C.3   274  LEU274      0.1561
    127  C        -10.9610   19.4820   -6.3070 C.2   274  LEU274      0.2260
    128  O        -10.0360   19.4330   -5.4700 O.2   274  LEU274     -0.2867
    129  CB        -9.7530   21.1450   -7.8060 C.3   274  LEU274      0.0270
    130  CG        -8.6490   21.0370   -8.8620 C.3   274  LEU274      0.0019
    131  CD1       -7.9270   22.3290   -9.0260 C.3   274  LEU274      0.0001
    132  CD2       -7.6450   19.9590   -8.4530 C.3   274  LEU274      0.0001
    133  N         -9.6880   29.5860   -3.5610 N.3   309  GLY309     -0.1225
    134  CA        -9.8180   28.8020   -4.7850 C.3   309  GLY309      0.1811
    135  C        -11.2730   28.6600   -5.2090 C.2   309  GLY309      0.2280
    136  O        -12.1670   29.3760   -4.7250 O.2   309  GLY309     -0.2866
    137  N        -13.1060   26.3870   -8.8650 N.3   311  TYR311     -0.1241
    138  CA       -12.7080   26.0430  -10.2300 C.3   311  TYR311      0.1605
    139  C        -13.8500   25.7370  -11.1700 C.2   311  TYR311      0.2264
    140  O        -13.5940   25.3530  -12.3060 O.2   311  TYR311     -0.2867
    141  CB       -11.6990   24.8600  -10.1920 C.3   311  TYR311      0.0534
    142  CG       -10.5420   25.2830   -9.3370 C.ar  311  TYR311     -0.0201
    143  CD1       -9.6060   26.1850   -9.8350 C.ar  311  TYR311     -0.0009
    144  CD2      -10.4850   24.9080   -7.9940 C.ar  311  TYR311     -0.0009
    145  CE1       -8.5760   26.6620   -9.0230 C.ar  311  TYR311      0.0417
    146  CE2       -9.4640   25.3640   -7.1810 C.ar  311  TYR311      0.0417
    147  CZ        -8.5210   26.2600   -7.7050 C.ar  311  TYR311      0.1957
    148  OH        -7.4870   26.7680   -6.9230 O.3   311  TYR311     -0.2866
@<TRIPOS>BOND
     1     1     2    1
     2     2     3    1
     3     2     5    1
     4     3     4    2
     5     5     6    1
     6   140   139    2
     7    20    19    2
     8     6     8    1
     9     6     7    1
    10    24    22    1
    11   139   138    1
    12    19    18    1
    13    18    17    1
    14    18    21    1
    15    23    21    1
    16   138   141    1
    17   138   137    1
    18    22    21    1
    19   141   142    1
    20   143   142   ar
    21   143   145   ar
    22    73    74   ar
    23    73    71   ar
    24    74    72   ar
    25   142   144   ar
    26    71    69   ar
    27   131   130    1
    28   145   147   ar
    29   130   132    1
    30   130   129    1
    31    72    70   ar
    32   125   126    1
    33    69    70   ar
    34    69    68    1
    35    12    11    2
    36    11    10    1
    37   144   146   ar
    38    15    14   ar
    39   129   126    1
    40   126   127    1
    41   147   146   ar
    42   147   148    1
    43    68    65    1
    44    65    64    1
    45    65    66    1
    46     9    10    1
    47    67    66    2
    48    14    16   ar
    49    14    13    1
    50    10    13    1
    51    64    62   am
    52    66    75   am
    53    31    25    1
    54    31    30    1
    55   127   128    2
    56    25    26    1
    57    62    63    2
    58    62    61    1
    59    30    29    1
    60    75    76    1
    61   135   134    1
    62   135   136    2
    63    61    60    1
    64   134   133    1
    65    60    54   am
    66   121   118    1
    67   121   122    1
    68   118   117    1
    69   118   119    1
    70    76    77    1
    71    76    79    1
    72    29    26    1
    73    77    78    2
    74    26    27    1
    75   120   119    2
    76    97    98   ar
    77    97    95   ar
    78    54    55    2
    79    54    53    1
    80   108   109   ar
    81   108   106   ar
    82   124   122   ar
    83    98    96   ar
    84    28    27    2
    85   109   107   ar
    86   122   123   ar
    87   106   104   ar
    88    53    52    1
    89    53    56    1
    90   107   105   ar
    91   104   105   ar
    92   104   103    1
    93    95    94   ar
    94    79    80    1
    95   103   100    1
    96    96    94   ar
    97    56    57    1
    98    57    58    1
    99    49    51   ar
   100    49    47   ar
   101    94    93    1
   102    88    86   ar
   103    51    50   ar
   104   100    99    1
   105   100   101    1
   106   116   115    1
   107   116   110    1
   108   115   114    1
   109    47    46    1
   110    47    48   ar
   111    86    87   ar
   112    86    85    1
   113    46    43    1
   114    93    90    1
   115   114   111    1
   116    59    58    1
   117    50    48   ar
   118    41    39   ar
   119    41    40   ar
   120    39    37   ar
   121   101   102    2
   122   110   111    1
   123    89    90    1
   124    85    82    1
   125    32    33    1
   126   111   112    1
   127    90    91    1
   128    42    43    1
   129    42    34   am
   130    43    44    1
   131    82    83    1
   132    82    81    1
   133    44    45    2
   134    40    38   ar
   135    83    84    2
   136    37    38   ar
   137    37    36    1
   138    33    34    1
   139    33    36    1
   140    34    35    2
   141    91    92    2
   142   112   113    2
