@<TRIPOS>MOLECULE
tmp/1zz2A01.pdb
 205 191 0 0 0
SMALL
GASTEIGER

@<TRIPOS>ATOM
      1  N         39.3350   77.3420   26.0030 N.3    26  VAL26      -0.1231
      2  CA        37.9060   77.5900   26.1580 C.3    26  VAL26       0.1692
      3  C         37.0820   76.3180   25.9770 C.2    26  VAL26       0.2592
      4  O         35.8560   76.3440   26.0640 O.2    26  VAL26      -0.2718
      5  CB        37.4000   78.6660   25.1630 C.3    26  VAL26       0.0266
      6  CG1       38.1020   79.9940   25.4170 C.3    26  VAL26       0.0020
      7  CG2       37.6210   78.2170   23.7310 C.3    26  VAL26       0.0020
      8  N         37.7600   75.2060   25.7200 N.am   27  GLY27      -0.1957
      9  CA        37.3110   74.2990   24.6830 C.3    27  GLY27       0.1869
     10  C         38.0940   73.0030   24.6780 C.2    27  GLY27       0.2309
     11  O         39.3220   73.0110   24.5940 O.2    27  GLY27      -0.2863
     12  N         36.0230   66.6720   19.2540 N.3    31  TYR31      -0.1241
     13  CA        36.1370   67.4740   18.0430 C.3    31  TYR31       0.1605
     14  C         37.5090   68.1440   17.9380 C.2    31  TYR31       0.2264
     15  O         37.8610   68.6880   16.8930 O.2    31  TYR31      -0.2867
     16  CB        35.0280   68.5300   18.0020 C.3    31  TYR31       0.0534
     17  CG        34.9610   69.3970   19.2390 C.ar   31  TYR31      -0.0201
     18  CD1       35.7190   70.5610   19.3450 C.ar   31  TYR31      -0.0009
     19  CD2       34.1550   69.0470   20.3170 C.ar   31  TYR31      -0.0009
     20  CE1       35.9380   71.1530   20.5850 C.ar   31  TYR31       0.0417
     21  CE2       34.3620   69.6160   21.5680 C.ar   31  TYR31       0.0417
     22  CZ        35.2080   70.7130   21.6830 C.ar   31  TYR31       0.1957
     23  OH        35.3080   71.3720   22.8870 O.3    31  TYR31      -0.2866
     24  N         40.1120   73.7920   21.6710 N.3    34  VAL34      -0.1245
     25  CA        39.9290   75.1730   21.2410 C.3    34  VAL34       0.1561
     26  C         40.4370   76.2060   22.2460 C.2    34  VAL34       0.2260
     27  O         40.1720   76.1090   23.4440 O.2    34  VAL34      -0.2867
     28  CB        38.4430   75.4610   20.9390 C.3    34  VAL34       0.0252
     29  CG1       38.2590   76.9050   20.4610 C.3    34  VAL34       0.0019
     30  CG2       37.9280   74.4870   19.8890 C.3    34  VAL34       0.0019
     31  N         39.2440   82.4190   17.6190 N.3    47  ALA47      -0.1231
     32  CA        39.1320   81.0830   18.1760 C.3    47  ALA47       0.1694
     33  C         40.0490   80.1840   17.3580 C.2    47  ALA47       0.2592
     34  O         39.9630   80.1500   16.1350 O.2    47  ALA47      -0.2718
     35  CB        37.6920   80.5910   18.0900 C.3    47  ALA47       0.0304
     36  N         40.9480   79.4840   18.0320 N.am   48  VAL48      -0.1966
     37  CA        41.8670   78.5910   17.3480 C.3    48  VAL48       0.1727
     38  C         41.5440   77.1620   17.7580 C.2    48  VAL48       0.2616
     39  O         41.4600   76.8480   18.9420 O.2    48  VAL48      -0.2715
     40  CB        43.3370   78.9200   17.6970 C.3    48  VAL48       0.0290
     41  CG1       44.2880   78.0110   16.9300 C.3    48  VAL48       0.0023
     42  CG2       43.6300   80.3750   17.3750 C.3    48  VAL48       0.0023
     43  N         41.3520   76.3040   16.7650 N.am   49  LYS49      -0.1977
     44  CA        41.0280   74.9100   17.0140 C.3    49  LYS49       0.1596
     45  C         42.1020   73.9720   16.4720 C.2    49  LYS49       0.2287
     46  O         42.4340   74.0220   15.2920 O.2    49  LYS49      -0.2864
     47  CB        39.6880   74.5980   16.3590 C.3    49  LYS49       0.0298
     48  CG        39.1970   73.1760   16.4780 C.3    49  LYS49       0.0038
     49  CD        37.8690   73.0810   15.7310 C.3    49  LYS49       0.0206
     50  CE        37.2160   71.7410   15.8690 C.3    49  LYS49       0.1093
     51  NZ        35.8070   71.8320   15.3890 N.3    49  LYS49      -0.1314
     52  N         35.9500   69.0780    7.4520 N.3    67  GLU67      -0.1245
     53  CA        35.8400   70.3390    8.1760 C.3    67  GLU67       0.1567
     54  C         36.6130   71.4640    7.4950 C.2    67  GLU67       0.2260
     55  O         36.1610   72.6140    7.4830 O.2    67  GLU67      -0.2867
     56  CB        36.2940   70.1880    9.6300 C.3    67  GLU67       0.0388
     57  CG        36.0440   71.4510   10.4410 C.3    67  GLU67       0.1160
     58  CD        36.3400   71.2940   11.9140 C.2    67  GLU67       0.3649
     59  OE1       36.0850   72.2560   12.6590 O.co2  67  GLU67      -0.2457
     60  OE2       36.8300   70.2280   12.3310 O.co2  67  GLU67      -0.2457
     61  N         34.5830   74.8300    6.1130 N.3    71  LEU71      -0.1245
     62  CA        34.9550   76.1640    6.5670 C.3    71  LEU71       0.1561
     63  C         35.5090   77.0460    5.4520 C.2    71  LEU71       0.2260
     64  O         35.2240   78.2330    5.4080 O.2    71  LEU71      -0.2867
     65  CB        35.9390   76.0780    7.7420 C.3    71  LEU71       0.0270
     66  CG        35.4170   75.3630    8.9950 C.3    71  LEU71       0.0019
     67  CD1       36.4660   75.4020   10.1110 C.3    71  LEU71       0.0001
     68  CD2       34.1260   76.0270    9.4670 C.3    71  LEU71       0.0001
     69  N         29.9770   80.4890   10.7480 N.3    80  ILE80      -0.1245
     70  CA        31.4140   80.5090   10.9730 C.3    80  ILE80       0.1561
     71  C         32.1300   80.2260    9.6520 C.2    80  ILE80       0.2260
     72  O         31.7540   79.3070    8.9220 O.2    80  ILE80      -0.2867
     73  CB        31.7990   79.4710   12.0490 C.3    80  ILE80       0.0252
     74  CG1       33.2900   79.1810   12.0480 C.3    80  ILE80       0.0019
     75  CG2       31.0550   78.1780   11.8360 C.3    80  ILE80       0.0019
     76  CD1       33.6460   78.0010   12.9180 C.3    80  ILE80       0.0001
     77  N         36.3070   80.3750    7.6590 N.3    82  LEU82      -0.1245
     78  CA        37.7350   80.2220    7.9300 C.3    82  LEU82       0.1561
     79  C         38.5730   81.4990    7.8130 C.2    82  LEU82       0.2260
     80  O         38.7190   82.0510    6.7330 O.2    82  LEU82      -0.2867
     81  CB        38.3220   79.1620    6.9920 C.3    82  LEU82       0.0270
     82  CG        38.9770   77.9100    7.5810 C.3    82  LEU82       0.0019
     83  CD1       40.1700   77.5220    6.7180 C.3    82  LEU82       0.0001
     84  CD2       39.4140   78.1380    9.0080 C.3    82  LEU82       0.0001
     85  N         42.7440   75.3860   12.8220 N.3   100  LEU100     -0.1231
     86  CA        41.7470   76.1800   12.1200 C.3   100  LEU100      0.1693
     87  C         41.4560   77.4210   12.9500 C.2   100  LEU100      0.2592
     88  O         41.3760   77.3410   14.1740 O.2   100  LEU100     -0.2718
     89  CB        40.4660   75.3660   11.9480 C.3   100  LEU100      0.0284
     90  CG        40.6440   74.0120   11.2600 C.3   100  LEU100      0.0019
     91  CD1       39.3940   73.1630   11.4470 C.3   100  LEU100      0.0001
     92  CD2       40.9500   74.2230    9.7840 C.3   100  LEU100      0.0001
     93  N         41.2740   78.5590   12.2850 N.am  101  VAL101     -0.1966
     94  CA        41.0000   79.8130   12.9770 C.3   101  VAL101      0.1727
     95  C         39.7160   80.4880   12.4780 C.2   101  VAL101      0.2617
     96  O         39.4690   80.5570   11.2790 O.2   101  VAL101     -0.2715
     97  CB        42.1800   80.8080   12.7920 C.3   101  VAL101      0.0290
     98  CG1       41.9300   82.0940   13.5690 C.3   101  VAL101      0.0023
     99  CG2       43.4860   80.1590   13.2180 C.3   101  VAL101      0.0023
    100  N         38.8990   80.9750   13.4060 N.am  102  THR102     -0.1937
    101  CA        37.6710   81.6710   13.0380 C.3   102  THR102      0.2028
    102  C         37.3640   82.7600   14.0560 C.2   102  THR102      0.2642
    103  O         38.0980   82.9340   15.0330 O.2   102  THR102     -0.2714
    104  CB        36.4610   80.7100   12.9360 C.3   102  THR102      0.1808
    105  OG1       35.3640   81.3910   12.3010 O.3   102  THR102     -0.2208
    106  CG2       36.0350   80.2450   14.3260 C.3   102  THR102      0.0379
    107  N         36.2820   83.4990   13.8230 N.am  103  HIS103     -0.1959
    108  CA        35.8870   84.5740   14.7240 C.3   103  HIS103      0.1787
    109  C         35.5100   84.0590   16.1080 C.2   103  HIS103      0.2620
    110  O         34.9980   82.9490   16.2540 O.2   103  HIS103     -0.2715
    111  CB        34.6890   85.3490   14.1570 C.3   103  HIS103      0.0785
    112  CG        34.9660   86.0390   12.8600 C.ar  103  HIS103      0.0821
    113  ND1       34.5410   85.5410   11.6460 N.ar  103  HIS103     -0.2267
    114  CD2       35.6080   87.1970   12.5780 C.ar  103  HIS103      0.1154
    115  CE1       34.7550   86.4430   10.7060 C.ar  103  HIS103      0.1986
    116  NE2       35.3550   87.4850   11.2590 N.ar  103  HIS103     -0.2212
    117  N         35.8250   84.8550   17.1250 N.am  104  LEU104     -0.1963
    118  CA        35.4690   84.5270   18.4990 C.3   104  LEU104      0.1728
    119  C         34.3920   85.5580   18.8420 C.2   104  LEU104      0.2616
    120  O         34.6620   86.7670   18.8710 O.2   104  LEU104     -0.2715
    121  CB        36.6650   84.7030   19.4300 C.3   104  LEU104      0.0311
    122  CG        36.4290   84.2960   20.8880 C.3   104  LEU104      0.0022
    123  CD1       36.6370   82.7990   21.0340 C.3   104  LEU104      0.0001
    124  CD2       37.3780   85.0490   21.8080 C.3   104  LEU104      0.0001
    125  N         33.1660   85.0920   19.0580 N.am  105  MET105     -0.1977
    126  CA        32.0610   85.9950   19.3680 C.3   105  MET105      0.1605
    127  C         31.9930   86.4090   20.8320 C.2   105  MET105      0.2287
    128  O         31.6200   87.5370   21.1370 O.2   105  MET105     -0.2864
    129  CB        30.7320   85.3780   18.9310 C.3   105  MET105      0.0413
    130  CG        30.6100   85.1710   17.4310 C.3   105  MET105      0.0598
    131  SD        30.3740   86.7020   16.5210 S.3   105  MET105     -0.1393
    132  CE        32.0570   87.1670   16.1710 C.3   105  MET105      0.0692
    133  N         28.0110   81.9400   24.0970 N.3   108  ASP108     -0.1239
    134  CA        27.0920   81.0990   23.3430 C.3   108  ASP108      0.1674
    135  C         25.6820   81.4450   23.8270 C.2   108  ASP108      0.2266
    136  O         25.5200   82.2400   24.7610 O.2   108  ASP108     -0.2867
    137  CB        27.4090   79.5990   23.4920 C.3   108  ASP108      0.1410
    138  CG        27.2600   79.0820   24.9220 C.2   108  ASP108      0.3668
    139  OD1       28.0090   78.1450   25.2760 O.co2 108  ASP108     -0.2456
    140  OD2       26.3950   79.5760   25.6810 O.co2 108  ASP108     -0.2456
    141  N         23.2360   69.0150   14.4990 N.3   146  ASP146     -0.1239
    142  CA        23.5000   69.0350   15.9380 C.3   146  ASP146      0.1674
    143  C         23.3140   70.4630   16.4140 C.2   146  ASP146      0.2266
    144  O         24.0730   70.9560   17.2430 O.2   146  ASP146     -0.2867
    145  CB        24.9080   68.5360   16.2870 C.3   146  ASP146      0.1410
    146  CG        25.0610   68.2360   17.7780 C.2   146  ASP146      0.3668
    147  OD1       24.0200   68.0540   18.4380 O.co2 146  ASP146     -0.2456
    148  OD2       26.2010   68.1920   18.2950 O.co2 146  ASP146     -0.2456
    149  N         22.1770   73.4190   18.4640 N.3   148  LYS148     -0.1245
    150  CA        21.8370   73.5650   19.8690 C.3   148  LYS148      0.1561
    151  C         22.4800   74.8720   20.3250 C.2   148  LYS148      0.2260
    152  O         23.3660   75.4080   19.6470 O.2   148  LYS148     -0.2867
    153  CB        22.3480   72.3580   20.6700 C.3   148  LYS148      0.0271
    154  CG        23.8350   72.0700   20.5080 C.3   148  LYS148      0.0035
    155  CD        24.2200   70.8410   21.3090 C.3   148  LYS148      0.0206
    156  CE        25.6640   70.4550   21.0900 C.3   148  LYS148      0.1093
    157  NZ        26.0200   69.3070   21.9660 N.3   148  LYS148     -0.1314
    158  N         24.7400   75.7280   22.4040 N.3   150  SER150     -0.1202
    159  CA        26.2000   75.7780   22.5180 C.3   150  SER150      0.2020
    160  C         26.8790   75.8640   21.1500 C.2   150  SER150      0.2618
    161  O         28.0820   76.0880   21.0570 O.2   150  SER150     -0.2717
    162  CB        26.7400   74.5890   23.3150 C.3   150  SER150      0.2103
    163  OG        26.4210   73.3610   22.6890 O.3   150  SER150     -0.2182
    164  N         26.0970   75.6780   20.0920 N.am  151  ASN151     -0.1974
    165  CA        26.6170   75.7730   18.7350 C.3   151  ASN151      0.1688
    166  C         26.1950   77.0960   18.1040 C.2   151  ASN151      0.2292
    167  O         26.2490   77.2730   16.8870 O.2   151  ASN151     -0.2864
    168  CB        26.1520   74.5850   17.8900 C.3   151  ASN151      0.1181
    169  CG        27.0480   73.3720   18.0610 C.2   151  ASN151      0.2629
    170  OD1       28.2240   73.5010   18.4170 O.2   151  ASN151     -0.2716
    171  ND2       26.5000   72.1880   17.8210 N.am  151  ASN151     -0.0877
    172  N         27.1260   81.0160   18.4720 N.3   153  ALA153     -0.1245
    173  CA        27.9620   82.1030   18.9810 C.3   153  ALA153      0.1562
    174  C         27.2440   83.4490   18.8850 C.2   153  ALA153      0.2260
    175  O         26.7680   83.8370   17.8160 O.2   153  ALA153     -0.2867
    176  CB        29.2780   82.1440   18.2110 C.3   153  ALA153      0.0290
    177  N         27.7710   77.6050   14.5270 N.3   163  LEU163     -0.1231
    178  CA        29.0550   76.9470   14.7060 C.3   163  LEU163      0.1693
    179  C         29.0180   75.4220   14.5670 C.2   163  LEU163      0.2592
    180  O         28.0150   74.7860   14.8800 O.2   163  LEU163     -0.2718
    181  CB        29.5520   77.3240   16.1000 C.3   163  LEU163      0.0284
    182  CG        30.8870   76.8470   16.6540 C.3   163  LEU163      0.0019
    183  CD1       31.9910   77.1210   15.6560 C.3   163  LEU163      0.0001
    184  CD2       31.1530   77.5810   17.9650 C.3   163  LEU163      0.0001
    185  N         30.1250   74.8530   14.0930 N.am  164  ASP164     -0.1974
    186  CA        30.2890   73.4090   13.9350 C.3   164  ASP164      0.1709
    187  C         29.1930   72.6200   13.2080 C.2   164  ASP164      0.2293
    188  O         28.7550   71.5630   13.6730 O.2   164  ASP164     -0.2864
    189  CB        30.5940   72.7690   15.2950 C.3   164  ASP164      0.1436
    190  CG        31.9320   73.2190   15.8630 C.2   164  ASP164      0.3671
    191  OD1       32.7370   73.7850   15.0970 O.co2 164  ASP164     -0.2456
    192  OD2       32.1750   73.0140   17.0690 O.co2 164  ASP164     -0.2456
    193  N         29.3400   68.5150   10.4470 N.3   167  LEU167     -0.1231
    194  CA        30.3410   67.6000   10.9910 C.3   167  LEU167      0.1693
    195  C         29.7680   66.3360   11.6160 C.2   167  LEU167      0.2591
    196  O         30.2630   65.2400   11.3620 O.2   167  LEU167     -0.2718
    197  CB        31.2050   68.3190   12.0300 C.3   167  LEU167      0.0284
    198  CG        32.0040   69.5310   11.5570 C.3   167  LEU167      0.0019
    199  CD1       32.6220   70.2400   12.7450 C.3   167  LEU167      0.0001
    200  CD2       33.0690   69.0890   10.5750 C.3   167  LEU167      0.0001
    201  N         28.7580   66.4920   12.4690 N.am  168  ALA168     -0.1980
    202  CA        28.1420   65.3510   13.1430 C.3   168  ALA168      0.1597
    203  C         27.5960   64.3220   12.1540 C.2   168  ALA168      0.2287
    204  O         27.1710   64.7320   11.0510 O.2   168  ALA168     -0.2864
    205  CB        27.0360   65.8250   14.0860 C.3   168  ALA168      0.0319
@<TRIPOS>BOND
     1    64    63    2
     2    63    62    1
     3    61    62    1
     4    62    65    1
     5    83    82    1
     6    80    79    2
     7    81    82    1
     8    81    78    1
     9    52    53    1
    10    55    54    2
    11    54    53    1
    12    82    84    1
    13    77    78    1
    14    65    66    1
    15    79    78    1
    16    53    56    1
    17    72    71    2
    18    66    68    1
    19    66    67    1
    20    56    57    1
    21    71    70    1
    22    92    90    1
    23    57    58    1
    24   193   194    1
    25   200   198    1
    26   115   116   ar
    27   115   113   ar
    28    69    70    1
    29    70    73    1
    30   194   195    1
    31   194   197    1
    32   204   203    2
    33   116   114   ar
    34    90    91    1
    35    90    89    1
    36    96    95    2
    37   196   195    2
    38   198   197    1
    39   198   199    1
    40   195   201   am
    41   113   112   ar
    42    75    73    1
    43    58    60   ar
    44    58    59   ar
    45    89    86    1
    46    74    73    1
    47    74    76    1
    48    86    85    1
    49    86    87    1
    50   203   202    1
    51    93    87   am
    52    93    94    1
    53   105   104    1
    54   201   202    1
    55    95    94    1
    56    95   100   am
    57   114   112   ar
    58    97    94    1
    59    97    99    1
    60    97    98    1
    61   112   111    1
    62   104   101    1
    63   104   106    1
    64    87    88    2
    65   101   100    1
    66   101   102    1
    67   202   205    1
    68   187   188    2
    69   187   186    1
    70   107   102   am
    71   107   108    1
    72   186   185    1
    73   186   189    1
    74   102   103    2
    75   185   179   am
    76   111   108    1
    77   141   142    1
    78   177   178    1
    79   179   178    1
    80   179   180    2
    81   178   181    1
    82   108   109    1
    83   191   190   ar
    84    46    45    2
    85   189   190    1
    86    51    50    1
    87   183   182    1
    88    49    50    1
    89    49    48    1
    90   190   192   ar
    91   142   145    1
    92   142   143    1
    93   181   182    1
    94   109   110    2
    95   109   117   am
    96    34    33    2
    97   132   131    1
    98   145   146    1
    99    47    48    1
   100    47    44    1
   101   143   144    2
   102    45    44    1
   103   131   130    1
   104   182   184    1
   105    43    44    1
   106    43    38   am
   107   167   166    2
   108    15    14    2
   109    41    40    1
   110   117   118    1
   111    37    40    1
   112    37    38    1
   113    37    36    1
   114    33    36   am
   115    33    32    1
   116    42    40    1
   117   130   129    1
   118    31    32    1
   119    38    39    2
   120   146   148   ar
   121   146   147   ar
   122   175   174    2
   123   171   169   am
   124   168   169    1
   125   168   165    1
   126    14    13    1
   127    16    13    1
   128    16    17    1
   129    13    12    1
   130   169   170    2
   131    35    32    1
   132   166   165    1
   133   176   173    1
   134   149   150    1
   135   172   173    1
   136   118   119    1
   137   118   121    1
   138   165   164    1
   139   119   120    2
   140   119   125   am
   141   174   173    1
   142   129   126    1
   143   125   126    1
   144    17    18   ar
   145    17    19   ar
   146    18    20   ar
   147   126   127    1
   148   121   122    1
   149   152   151    2
   150   150   151    1
   151   150   153    1
   152    30    28    1
   153   164   160   am
   154    19    21   ar
   155    29    28    1
   156   154   153    1
   157   154   155    1
   158    20    22   ar
   159   127   128    2
   160   122   123    1
   161   122   124    1
   162    28    25    1
   163   161   160    2
   164   156   155    1
   165   156   157    1
   166   160   159    1
   167    25    24    1
   168    25    26    1
   169    21    22   ar
   170    22    23    1
   171    26    27    2
   172   158   159    1
   173   159   162    1
   174   163   162    1
   175   134   137    1
   176   134   135    1
   177   134   133    1
   178   137   138    1
   179     7     5    1
   180   135   136    2
   181    11    10    2
   182    10     9    1
   183     9     8    1
   184   138   139   ar
   185   138   140   ar
   186     5     6    1
   187     5     2    1
   188     8     3   am
   189     3     4    2
   190     3     2    1
   191     1     2    1
