@<TRIPOS>MOLECULE
tmp/1zz3C00.pdb
 125 120 0 0 0
SMALL
GASTEIGER

@<TRIPOS>ATOM
      1  N         -2.6250   21.6070  -15.0700 N.3    20  LEU20      -0.1245
      2  CA        -2.3830   21.6130  -13.6490 C.3    20  LEU20       0.1561
      3  C         -0.8690   21.8480  -13.5340 C.2    20  LEU20       0.2260
      4  O         -0.4280   22.9400  -13.2010 O.2    20  LEU20      -0.2867
      5  CB        -2.8050   20.2840  -13.0120 C.3    20  LEU20       0.0270
      6  CG        -2.6380   20.1670  -11.4880 C.3    20  LEU20       0.0019
      7  CD1       -3.3310   21.3050  -10.7350 C.3    20  LEU20       0.0001
      8  CD2       -3.1470   18.7750  -11.0460 C.3    20  LEU20       0.0001
      9  N          3.2170   23.5550  -10.1740 N.3    99  ILE99      -0.1245
     10  CA         1.8260   23.8740  -10.5060 C.3    99  ILE99       0.1561
     11  C          1.5460   25.3680  -10.3310 C.2    99  ILE99       0.2260
     12  O          0.3780   25.7920  -10.4520 O.2    99  ILE99      -0.2867
     13  CB         0.7810   22.9810   -9.7790 C.3    99  ILE99       0.0252
     14  CG1        0.7460   23.2290   -8.2560 C.3    99  ILE99       0.0019
     15  CG2        1.0150   21.4860  -10.1200 C.3    99  ILE99       0.0019
     16  CD1       -0.3050   22.3560   -7.4880 C.3    99  ILE99       0.0001
     17  N         -4.6430   33.3380   -5.4090 N.3   139  PRO139     -0.2116
     18  CA        -5.0500   32.9710   -4.0570 C.3   139  PRO139      0.1372
     19  C         -3.8210   32.9470   -3.1250 C.2   139  PRO139      0.2244
     20  O         -2.7110   33.1980   -3.5820 O.2   139  PRO139     -0.2868
     21  CB        -5.6260   31.5490   -4.2500 C.3   139  PRO139      0.0268
     22  CG        -4.7840   30.9880   -5.3850 C.3   139  PRO139      0.0207
     23  CD        -4.6620   32.1780   -6.3210 C.3   139  PRO139      0.0892
     24  N         -3.6810   30.9200    0.4410 N.3   141  HIS141     -0.1226
     25  CA        -3.5780   30.1140    1.6870 C.3   141  HIS141      0.1752
     26  C         -2.5450   28.9900    1.7460 C.2   141  HIS141      0.2596
     27  O         -2.1740   28.5570    2.8560 O.2   141  HIS141     -0.2718
     28  CB        -4.9690   29.6210    2.1300 C.3   141  HIS141      0.0759
     29  CG        -5.4960   28.4720    1.3130 C.ar  141  HIS141      0.0818
     30  ND1       -6.3600   27.5280    1.8350 N.ar  141  HIS141     -0.2268
     31  CD2       -5.2970   28.1290    0.0090 C.ar  141  HIS141      0.1154
     32  CE1       -6.6800   26.6590    0.8810 C.ar  141  HIS141      0.1986
     33  NE2       -6.0340   26.9900   -0.2290 N.ar  141  HIS141     -0.2212
     34  N         -2.0580   28.5190    0.5920 N.am  142  HIS142     -0.1975
     35  CA        -0.9860   27.5080    0.6210 C.3   142  HIS142      0.1656
     36  C          0.4190   28.0840    0.8080 C.2   142  HIS142      0.2291
     37  O          1.3580   27.3300    1.0500 O.2   142  HIS142     -0.2864
     38  CB        -0.9820   26.6500   -0.6520 C.3   142  HIS142      0.0771
     39  CG        -2.2440   25.8670   -0.8630 C.ar  142  HIS142      0.0820
     40  ND1       -2.7680   25.0230    0.0970 N.ar  142  HIS142     -0.2267
     41  CD2       -3.0640   25.7700   -1.9380 C.ar  142  HIS142      0.1154
     42  CE1       -3.8670   24.4540   -0.3720 C.ar  142  HIS142      0.1986
     43  NE2       -4.0690   24.8890   -1.6030 N.ar  142  HIS142     -0.2212
     44  N          0.9220   25.7260   -4.6630 N.3   150  GLY150     -0.1210
     45  CA        -0.5030   25.4890   -4.9420 C.3   150  GLY150      0.1956
     46  C         -1.2100   26.7310   -5.4630 C.2   150  GLY150      0.2612
     47  O         -2.3080   27.0830   -4.9840 O.2   150  GLY150     -0.2717
     48  N         -0.5880   27.3690   -6.4560 N.am  151  PHE151     -0.1962
     49  CA        -1.1090   28.5820   -7.1460 C.3   151  PHE151      0.1771
     50  C         -0.9510   29.8860   -6.3520 C.2   151  PHE151      0.2619
     51  O         -1.3400   30.9510   -6.8470 O.2   151  PHE151     -0.2715
     52  CB        -2.5980   28.4930   -7.5790 C.3   151  PHE151      0.0574
     53  CG        -3.0220   27.1590   -8.1780 C.ar  151  PHE151     -0.0200
     54  CD1       -4.3200   26.7060   -7.9890 C.ar  151  PHE151     -0.0042
     55  CD2       -2.1550   26.3850   -8.9170 C.ar  151  PHE151     -0.0042
     56  CE1       -4.7590   25.4880   -8.5450 C.ar  151  PHE151     -0.0003
     57  CE2       -2.5710   25.1450   -9.4600 C.ar  151  PHE151     -0.0003
     58  CZ        -3.8770   24.7130   -9.2750 C.ar  151  PHE151     -0.0000
     59  N         -0.4290   29.7950   -5.1280 N.am  152  CYS152     -0.1968
     60  CA        -0.3630   30.9430   -4.2180 C.3   152  CYS152      0.1712
     61  C          1.0510   31.5240   -4.2050 C.2   152  CYS152      0.2296
     62  O          2.0120   30.8050   -3.9470 O.2   152  CYS152     -0.2864
     63  CB        -0.7270   30.4670   -2.8070 C.3   152  CYS152      0.0983
     64  SG        -2.3610   29.7170   -2.6850 S.3   152  CYS152     -0.0798
     65  N        -11.9660   27.3750    2.0610 N.3   179  ASP179     -0.1239
     66  CA       -11.4850   26.7400    0.8330 C.3   179  ASP179      0.1674
     67  C        -11.4090   25.2110    1.1330 C.2   179  ASP179      0.2266
     68  O        -11.0430   24.8160    2.2340 O.2   179  ASP179     -0.2867
     69  CB       -10.1030   27.2930    0.4880 C.3   179  ASP179      0.1410
     70  CG        -9.5220   26.6670   -0.7380 C.2   179  ASP179      0.3668
     71  OD1       -9.1370   25.4650   -0.6850 O.co2 179  ASP179     -0.2456
     72  OD2       -9.4390   27.3680   -1.7570 O.co2 179  ASP179     -0.2456
     73  N         -9.4170   22.9400    0.3920 N.3   181  HIS181     -0.1241
     74  CA        -8.0630   22.4180    0.5810 C.3   181  HIS181      0.1621
     75  C         -7.4810   22.9440    1.8800 C.2   181  HIS181      0.2264
     76  O         -7.9210   23.9690    2.3840 O.2   181  HIS181     -0.2867
     77  CB        -7.1710   22.8090   -0.6150 C.3   181  HIS181      0.0745
     78  CG        -7.7270   22.3240   -1.9190 C.ar  181  HIS181      0.0817
     79  ND1       -8.2990   23.1680   -2.8460 N.ar  181  HIS181     -0.2268
     80  CD2       -7.8770   21.0620   -2.4070 C.ar  181  HIS181      0.1154
     81  CE1       -8.7410   22.4510   -3.8730 C.ar  181  HIS181      0.1986
     82  NE2       -8.4930   21.1730   -3.6330 N.ar  181  HIS181     -0.2212
     83  N         -5.5180   18.3990   -0.6190 N.3   207  PHE207     -0.1241
     84  CA        -4.2600   19.0860   -0.9730 C.3   207  PHE207      0.1605
     85  C         -3.9370   20.0860    0.1170 C.2   207  PHE207      0.2264
     86  O         -4.8230   20.8080    0.5270 O.2   207  PHE207     -0.2867
     87  CB        -4.3750   19.8380   -2.3290 C.3   207  PHE207      0.0534
     88  CG        -3.0810   20.4630   -2.7600 C.ar  207  PHE207     -0.0203
     89  CD1       -2.7620   21.7790   -2.4030 C.ar  207  PHE207     -0.0042
     90  CD2       -2.1550   19.7240   -3.4810 C.ar  207  PHE207     -0.0042
     91  CE1       -1.5510   22.3480   -2.7860 C.ar  207  PHE207     -0.0003
     92  CE2       -0.9350   20.2840   -3.8420 C.ar  207  PHE207     -0.0003
     93  CZ        -0.6370   21.6040   -3.4900 C.ar  207  PHE207     -0.0000
     94  N        -14.3040   25.9940   -3.7880 N.3   267  ASP267     -0.1239
     95  CA       -13.9850   24.6780   -4.3270 C.3   267  ASP267      0.1674
     96  C        -14.5530   23.5070   -3.5550 C.2   267  ASP267      0.2266
     97  O        -14.3820   22.3570   -3.9890 O.2   267  ASP267     -0.2867
     98  CB       -12.4820   24.5140   -4.6060 C.3   267  ASP267      0.1410
     99  CG       -11.5750   25.1000   -3.4850 C.2   267  ASP267      0.3668
    100  OD1      -12.0160   25.4950   -2.3920 O.co2 267  ASP267     -0.2456
    101  OD2      -10.3780   25.1820   -3.7820 O.co2 267  ASP267     -0.2456
    102  N        -11.7810   20.0680   -8.4830 N.3   274  LEU274     -0.1245
    103  CA       -10.6040   19.8530   -7.6440 C.3   274  LEU274      0.1561
    104  C        -10.8780   19.4220   -6.1920 C.2   274  LEU274      0.2260
    105  O         -9.9740   19.4700   -5.3410 O.2   274  LEU274     -0.2867
    106  CB        -9.6590   21.0700   -7.7160 C.3   274  LEU274      0.0270
    107  CG        -8.6090   21.0100   -8.8360 C.3   274  LEU274      0.0019
    108  CD1       -7.8530   22.3470   -8.9630 C.3   274  LEU274      0.0001
    109  CD2       -7.5990   19.9140   -8.5330 C.3   274  LEU274      0.0001
    110  N         -9.6250   29.5800   -3.4900 N.3   309  GLY309     -0.1225
    111  CA        -9.7900   28.7690   -4.7150 C.3   309  GLY309      0.1811
    112  C        -11.2440   28.5860   -5.1260 C.2   309  GLY309      0.2280
    113  O        -12.1380   29.3120   -4.6600 O.2   309  GLY309     -0.2866
    114  N        -13.0380   26.3380   -8.8040 N.3   311  TYR311     -0.1241
    115  CA       -12.6430   25.9840  -10.1600 C.3   311  TYR311      0.1605
    116  C        -13.7900   25.6830  -11.1160 C.2   311  TYR311      0.2264
    117  O        -13.5310   25.2260  -12.2370 O.2   311  TYR311     -0.2867
    118  CB       -11.6470   24.8060  -10.0940 C.3   311  TYR311      0.0534
    119  CG       -10.5090   25.2400   -9.2050 C.ar  311  TYR311     -0.0201
    120  CD1       -9.5080   26.0670   -9.7280 C.ar  311  TYR311     -0.0009
    121  CD2      -10.4760   24.9050   -7.8480 C.ar  311  TYR311     -0.0009
    122  CE1       -8.4880   26.5620   -8.9290 C.ar  311  TYR311      0.0417
    123  CE2       -9.4440   25.4190   -7.0090 C.ar  311  TYR311      0.0417
    124  CZ        -8.4540   26.2330   -7.6020 C.ar  311  TYR311      0.1957
    125  OH        -7.4470   26.7830   -6.8800 O.3   311  TYR311     -0.2866
@<TRIPOS>BOND
     1     1     2    1
     2     2     3    1
     3     2     5    1
     4     3     4    2
     5     5     6    1
     6   117   116    2
     7     6     8    1
     8     6     7    1
     9   116   115    1
    10    10    11    1
    11    10     9    1
    12    10    13    1
    13    12    11    2
    14   115   118    1
    15   115   114    1
    16    15    13    1
    17   118   119    1
    18    13    14    1
    19   120   119   ar
    20   120   122   ar
    21    57    58   ar
    22    57    55   ar
    23    58    56   ar
    24   119   121   ar
    25   108   107    1
    26   122   124   ar
    27    55    53   ar
    28   107   109    1
    29   107   106    1
    30    56    54   ar
    31   102   103    1
    32    14    16    1
    33    53    54   ar
    34    53    52    1
    35   121   123   ar
    36   106   103    1
    37   103   104    1
    38   124   123   ar
    39   124   125    1
    40    52    49    1
    41    49    48    1
    42    49    50    1
    43    51    50    2
    44    48    46   am
    45    50    59   am
    46    23    17    1
    47    23    22    1
    48   104   105    2
    49    46    47    2
    50    46    45    1
    51    17    18    1
    52    22    21    1
    53    59    60    1
    54   112   111    1
    55   112   113    2
    56    45    44    1
    57   111   110    1
    58    98    95    1
    59    98    99    1
    60    95    94    1
    61    95    96    1
    62    21    18    1
    63    60    61    1
    64    60    63    1
    65    61    62    2
    66    18    19    1
    67    97    96    2
    68    81    82   ar
    69    81    79   ar
    70    92    93   ar
    71    92    90   ar
    72   101    99   ar
    73    82    80   ar
    74    20    19    2
    75    93    91   ar
    76    99   100   ar
    77    90    88   ar
    78    79    78   ar
    79    63    64    1
    80    91    89   ar
    81    88    89   ar
    82    88    87    1
    83    80    78   ar
    84    87    84    1
    85    41    43   ar
    86    41    39   ar
    87    78    77    1
    88    72    70   ar
    89    43    42   ar
    90    84    83    1
    91    84    85    1
    92    39    38    1
    93    39    40   ar
    94    70    71   ar
    95    70    69    1
    96    38    35    1
    97    77    74    1
    98    42    40   ar
    99    33    31   ar
   100    33    32   ar
   101    31    29   ar
   102    85    86    2
   103    73    74    1
   104    24    25    1
   105    69    66    1
   106    74    75    1
   107    34    35    1
   108    34    26   am
   109    35    36    1
   110    36    37    2
   111    66    67    1
   112    66    65    1
   113    32    30   ar
   114    67    68    2
   115    29    30   ar
   116    29    28    1
   117    25    26    1
   118    25    28    1
   119    26    27    2
   120    75    76    2
