@<TRIPOS>MOLECULE
tmp/1zz3B00.pdb
 125 120 0 0 0
SMALL
GASTEIGER

@<TRIPOS>ATOM
      1  N        -24.7720   24.1050  -18.9660 N.3    20  LEU20      -0.1245
      2  CA       -25.5220   22.8710  -18.6870 C.3    20  LEU20       0.1561
      3  C        -26.8790   23.0310  -19.3910 C.2    20  LEU20       0.2260
      4  O        -27.1330   22.4040  -20.4110 O.2    20  LEU20      -0.2867
      5  CB       -25.6380   22.6610  -17.1770 C.3    20  LEU20       0.0270
      6  CG       -26.3850   21.4170  -16.6480 C.3    20  LEU20       0.0019
      7  CD1      -25.7570   20.1090  -17.1410 C.3    20  LEU20       0.0001
      8  CD2      -26.4940   21.4420  -15.0820 C.3    20  LEU20       0.0001
      9  N        -31.3240   20.4590  -21.0360 N.3    99  ILE99      -0.1245
     10  CA       -29.8570   20.3680  -20.9280 C.3    99  ILE99       0.1561
     11  C        -29.2320   19.6020  -22.1110 C.2    99  ILE99       0.2260
     12  O        -28.0330   19.3380  -22.1230 O.2    99  ILE99      -0.2867
     13  CB       -29.3960   19.7950  -19.5570 C.3    99  ILE99       0.0252
     14  CG1      -29.8580   18.3250  -19.3590 C.3    99  ILE99       0.0019
     15  CG2      -29.8780   20.6680  -18.4130 C.3    99  ILE99       0.0019
     16  CD1      -29.0940   17.6020  -18.1780 C.3    99  ILE99       0.0001
     17  N        -23.4820   10.7080  -26.1670 N.3   139  PRO139     -0.2116
     18  CA       -23.5900    9.4960  -25.3470 C.3   139  PRO139      0.1372
     19  C        -25.0200    8.9610  -25.4420 C.2   139  PRO139      0.2244
     20  O        -25.8680    9.5870  -26.0860 O.2   139  PRO139     -0.2868
     21  CB       -23.3000    9.9960  -23.9290 C.3   139  PRO139      0.0268
     22  CG       -23.7160   11.4590  -23.9470 C.3   139  PRO139      0.0207
     23  CD       -23.4700   11.9390  -25.3600 C.3   139  PRO139      0.0892
     24  N        -26.8330    6.6230  -22.5710 N.3   141  HIS141     -0.1226
     25  CA       -27.5500    5.8060  -21.5530 C.3   141  HIS141      0.1752
     26  C        -28.7590    6.4280  -20.8540 C.2   141  HIS141      0.2596
     27  O        -29.4930    5.7110  -20.1810 O.2   141  HIS141     -0.2718
     28  CB       -26.5820    5.2030  -20.5190 C.3   141  HIS141      0.0759
     29  CG       -25.9950    6.2020  -19.5620 C.ar  141  HIS141      0.0818
     30  ND1      -25.5920    5.8550  -18.2850 N.ar  141  HIS141     -0.2268
     31  CD2      -25.7510    7.5340  -19.6850 C.ar  141  HIS141      0.1154
     32  CE1      -25.1100    6.9300  -17.6730 C.ar  141  HIS141      0.1986
     33  NE2      -25.2100    7.9580  -18.4910 N.ar  141  HIS141     -0.2212
     34  N        -28.9120    7.7520  -20.9360 N.am  142  HIS142     -0.1975
     35  CA       -30.0880    8.3990  -20.3650 C.3   142  HIS142      0.1656
     36  C        -31.3040    8.3870  -21.2830 C.2   142  HIS142      0.2291
     37  O        -32.4010    8.6020  -20.8080 O.2   142  HIS142     -0.2864
     38  CB       -29.8030    9.8520  -19.9770 C.3   142  HIS142      0.0771
     39  CG       -28.7650   10.0010  -18.9220 C.ar  142  HIS142      0.0820
     40  ND1      -28.7890    9.2840  -17.7440 N.ar  142  HIS142     -0.2267
     41  CD2      -27.6770   10.8090  -18.8540 C.ar  142  HIS142      0.1154
     42  CE1      -27.7490    9.6370  -17.0010 C.ar  142  HIS142      0.1986
     43  NE2      -27.0680   10.5680  -17.6490 N.ar  142  HIS142     -0.2212
     44  N        -30.4470   14.1600  -20.8060 N.3   150  GLY150     -0.1210
     45  CA       -29.0920   14.2850  -20.2480 C.3   150  GLY150      0.1956
     46  C        -27.9770   14.0930  -21.2590 C.2   150  GLY150      0.2611
     47  O        -27.1120   13.2350  -21.0600 O.2   150  GLY150     -0.2717
     48  N        -28.0310   14.8680  -22.3640 N.am  151  PHE151     -0.1976
     49  CA       -26.9970   14.9120  -23.4380 C.3   151  PHE151      0.1639
     50  C        -27.1200   13.7470  -24.4290 C.2   151  PHE151      0.2290
     51  O        -26.3780   13.6930  -25.4200 O.2   151  PHE151     -0.2864
     52  CB       -25.5240   14.9380  -22.9220 C.3   151  PHE151      0.0560
     53  CG       -25.2590   15.8310  -21.7140 C.ar  151  PHE151     -0.0200
     54  CD1      -24.2530   15.4580  -20.7960 C.ar  151  PHE151     -0.0042
     55  CD2      -25.9620   17.0220  -21.4940 C.ar  151  PHE151     -0.0042
     56  CE1      -23.9570   16.2490  -19.6700 C.ar  151  PHE151     -0.0003
     57  CE2      -25.6800   17.8220  -20.3730 C.ar  151  PHE151     -0.0003
     58  CZ       -24.6790   17.4350  -19.4680 C.ar  151  PHE151     -0.0000
     59  N        -20.5260    4.4430  -16.3000 N.3   179  ASP179     -0.1239
     60  CA       -20.6920    5.9040  -16.2090 C.3   179  ASP179      0.1674
     61  C        -21.2500    6.1870  -14.7860 C.2   179  ASP179      0.2266
     62  O        -22.0230    5.3920  -14.2700 O.2   179  ASP179     -0.2867
     63  CB       -21.6740    6.3350  -17.2970 C.3   179  ASP179      0.1410
     64  CG       -22.0230    7.8140  -17.2260 C.2   179  ASP179      0.3668
     65  OD1      -22.5710    8.2950  -16.1850 O.co2 179  ASP179     -0.2456
     66  OD2      -21.7460    8.5070  -18.2280 O.co2 179  ASP179     -0.2456
     67  N        -23.3790    8.1820  -13.5440 N.3   181  HIS181     -0.1241
     68  CA       -24.8180    8.4780  -13.4790 C.3   181  HIS181      0.1621
     69  C        -25.6530    7.2770  -13.8360 C.2   181  HIS181      0.2264
     70  O        -25.2250    6.3840  -14.5850 O.2   181  HIS181     -0.2867
     71  CB       -25.1260    9.6400  -14.4320 C.3   181  HIS181      0.0745
     72  CG       -24.2790   10.8450  -14.1690 C.ar  181  HIS181      0.0817
     73  ND1      -23.2770   11.2510  -15.0230 N.ar  181  HIS181     -0.2268
     74  CD2      -24.2570   11.7050  -13.1250 C.ar  181  HIS181      0.1154
     75  CE1      -22.6820   12.3250  -14.5240 C.ar  181  HIS181      0.1986
     76  NE2      -23.2530   12.6200  -13.3680 N.ar  181  HIS181     -0.2212
     77  N        -27.3420   11.0230   -8.2330 N.3   206  CYS206     -0.1221
     78  CA       -26.5180   12.0420   -8.9150 C.3   206  CYS206      0.1808
     79  C        -27.2650   12.5760  -10.1530 C.2   206  CYS206      0.2601
     80  O        -27.6000   13.7770  -10.2350 O.2   206  CYS206     -0.2717
     81  CB       -25.1460   11.4650   -9.2640 C.3   206  CYS206      0.0970
     82  SG       -24.0350   12.7520  -10.0110 S.3   206  CYS206     -0.0800
     83  N        -27.5510   11.6880  -11.0930 N.am  207  PHE207     -0.1976
     84  CA       -28.4050   12.0390  -12.2270 C.3   207  PHE207      0.1639
     85  C        -28.9320   10.7840  -12.9130 C.2   207  PHE207      0.2290
     86  O        -28.1570    9.8580  -13.1590 O.2   207  PHE207     -0.2864
     87  CB       -27.6580   12.8950  -13.2660 C.3   207  PHE207      0.0560
     88  CG       -28.5660   13.4360  -14.3340 C.ar  207  PHE207     -0.0200
     89  CD1      -29.2850   14.6070  -14.1130 C.ar  207  PHE207     -0.0042
     90  CD2      -28.7410   12.7400  -15.5300 C.ar  207  PHE207     -0.0042
     91  CE1      -30.1600   15.0900  -15.1080 C.ar  207  PHE207     -0.0003
     92  CE2      -29.6020   13.2170  -16.5260 C.ar  207  PHE207     -0.0003
     93  CZ       -30.3200   14.3850  -16.3150 C.ar  207  PHE207     -0.0000
     94  N        -16.8400    9.5960  -15.9170 N.3   267  ASP267     -0.1239
     95  CA       -17.2310   10.6680  -14.9740 C.3   267  ASP267      0.1674
     96  C        -17.2000   10.2750  -13.4750 C.2   267  ASP267      0.2266
     97  O        -17.4700   11.0960  -12.6040 O.2   267  ASP267     -0.2867
     98  CB       -18.5680   11.3210  -15.3850 C.3   267  ASP267      0.1410
     99  CG       -19.6040   10.3220  -15.9060 C.2   267  ASP267      0.3668
    100  OD1      -19.4210    9.0850  -15.8320 O.co2 267  ASP267     -0.2456
    101  OD2      -20.6180   10.8180  -16.4280 O.co2 267  ASP267     -0.2456
    102  N        -18.8730   16.6240  -12.7460 N.3   274  LEU274     -0.1245
    103  CA       -20.2970   16.2030  -12.7090 C.3   274  LEU274      0.1561
    104  C        -20.6580   15.0140  -11.7700 C.2   274  LEU274      0.2260
    105  O        -21.7790   14.4850  -11.8220 O.2   274  LEU274     -0.2867
    106  CB       -20.8640   15.9960  -14.1290 C.3   274  LEU274      0.0270
    107  CG       -21.4800   17.2400  -14.7850 C.3   274  LEU274      0.0019
    108  CD1      -21.7900   16.9670  -16.2280 C.3   274  LEU274      0.0001
    109  CD2      -22.7770   17.6730  -14.0000 C.3   274  LEU274      0.0001
    110  N        -20.4440    9.0990  -20.6000 N.3   309  GLY309     -0.1225
    111  CA       -20.0380   10.4470  -20.1060 C.3   309  GLY309      0.1811
    112  C        -18.5900   10.5600  -19.6350 C.2   309  GLY309      0.2280
    113  O        -17.7710    9.6910  -19.9020 O.2   309  GLY309     -0.2866
    114  N        -16.1720   14.2520  -18.0730 N.3   311  TYR311     -0.1241
    115  CA       -16.1840   15.7160  -18.2420 C.3   311  TYR311      0.1605
    116  C        -14.9000   16.4330  -17.8870 C.2   311  TYR311      0.2264
    117  O        -14.8460   17.6700  -17.9060 O.2   311  TYR311     -0.2867
    118  CB       -17.4190   16.3370  -17.4990 C.3   311  TYR311      0.0534
    119  CG       -18.6570   15.6690  -18.0220 C.ar  311  TYR311     -0.0201
    120  CD1      -19.2380   14.5690  -17.3450 C.ar  311  TYR311     -0.0009
    121  CD2      -19.1810   16.0330  -19.2670 C.ar  311  TYR311     -0.0009
    122  CE1      -20.3360   13.8830  -17.8830 C.ar  311  TYR311      0.0417
    123  CE2      -20.2610   15.3410  -19.8130 C.ar  311  TYR311      0.0417
    124  CZ       -20.8320   14.2860  -19.1180 C.ar  311  TYR311      0.1957
    125  OH       -21.8950   13.6170  -19.6880 O.3   311  TYR311     -0.2866
@<TRIPOS>BOND
     1    17    23    1
     2    17    18    1
     3    20    19    2
     4    19    18    1
     5    51    50    2
     6    23    22    1
     7    18    21    1
     8    50    49    1
     9    22    21    1
    10    49    52    1
    11    49    48    1
    12    52    53    1
    13    24    25    1
    14    48    46   am
    15    12    11    2
    16    11    10    1
    17    53    55   ar
    18    53    54   ar
    19    25    26    1
    20    25    28    1
    21    55    57   ar
    22    36    37    2
    23    36    35    1
    24    46    47    2
    25    46    45    1
    26     9    10    1
    27    34    26   am
    28    34    35    1
    29    10    13    1
    30    26    27    2
    31    44    45    1
    32    54    56   ar
    33   110   111    1
    34    28    29    1
    35     4     3    2
    36    57    58   ar
    37    35    38    1
    38   111   112    1
    39    38    39    1
    40   113   112    2
    41   123   121   ar
    42   123   124   ar
    43   125   124    1
    44    31    29   ar
    45    31    33   ar
    46    56    58   ar
    47    29    30   ar
    48    13    14    1
    49    13    15    1
    50     3     2    1
    51    14    16    1
    52   121   119   ar
    53   124   122   ar
    54     1     2    1
    55    39    41   ar
    56    39    40   ar
    57    41    43   ar
    58     2     5    1
    59    33    32   ar
    60    30    32   ar
    61   115   114    1
    62   115   116    1
    63   115   118    1
    64    66    64   ar
    65   119   118    1
    66   119   120   ar
    67   117   116    2
    68   122   120   ar
    69    40    42   ar
    70    43    42   ar
    71    63    64    1
    72    63    60    1
    73    64    65   ar
    74     5     6    1
    75     7     6    1
    76     6     8    1
    77    92    93   ar
    78    92    90   ar
    79   101    99   ar
    80    93    91   ar
    81    59    60    1
    82   108   107    1
    83    60    61    1
    84    94    95    1
    85    99   100   ar
    86    99    98    1
    87    90    88   ar
    88    98    95    1
    89    91    89   ar
    90    73    75   ar
    91    73    72   ar
    92    95    96    1
    93    61    62    2
    94   107   106    1
    95   107   109    1
    96    70    69    2
    97    75    76   ar
    98    71    72    1
    99    71    68    1
   100    88    89   ar
   101    88    87    1
   102    72    74   ar
   103   106   103    1
   104    69    68    1
   105    67    68    1
   106    96    97    2
   107    76    74   ar
   108    87    84    1
   109    86    85    2
   110    85    84    1
   111   102   103    1
   112   103   104    1
   113    84    83    1
   114   105   104    2
   115    83    79   am
   116    80    79    2
   117    79    78    1
   118    82    81    1
   119    81    78    1
   120    78    77    1
