@<TRIPOS>MOLECULE
tmp/1zzcA00.pdb
 96 89 0 0 0
SMALL
GASTEIGER

@<TRIPOS>ATOM
      1  N         41.7250   58.9150   25.0950 N.3    87  TYR87      -0.1241
      2  CA        43.0650   58.6810   25.6240 C.3    87  TYR87       0.1605
      3  C         44.1650   59.5060   24.9750 C.2    87  TYR87       0.2264
      4  O         44.4180   59.3870   23.7830 O.2    87  TYR87      -0.2867
      5  CB        43.4080   57.1990   25.4970 C.3    87  TYR87       0.0534
      6  CG        42.3260   56.2780   25.9940 C.ar   87  TYR87      -0.0201
      7  CD1       41.2820   55.8710   25.1560 C.ar   87  TYR87      -0.0009
      8  CD2       42.3240   55.8220   27.3110 C.ar   87  TYR87      -0.0009
      9  CE1       40.2640   55.0310   25.6250 C.ar   87  TYR87       0.0417
     10  CE2       41.3120   54.9880   27.7840 C.ar   87  TYR87       0.0417
     11  CZ        40.2880   54.5960   26.9430 C.ar   87  TYR87       0.1957
     12  OH        39.2930   53.7790   27.4300 O.3    87  TYR87      -0.2866
     13  N         49.0600   57.6620   30.1560 N.3   102  LEU102     -0.1245
     14  CA        47.9650   58.2720   29.4070 C.3   102  LEU102      0.1561
     15  C         47.1920   59.2690   30.2540 C.2   102  LEU102      0.2260
     16  O         47.0620   59.0860   31.4610 O.2   102  LEU102     -0.2867
     17  CB        46.9280   57.2090   29.0340 C.3   102  LEU102      0.0270
     18  CG        47.2490   55.9110   28.3000 C.3   102  LEU102      0.0019
     19  CD1       46.0590   54.9510   28.3880 C.3   102  LEU102      0.0001
     20  CD2       47.6040   56.2380   26.8660 C.3   102  LEU102      0.0001
     21  N         43.5430   60.2840   30.6310 N.3   104  VAL104     -0.1245
     22  CA        42.2490   59.7810   30.1950 C.3   104  VAL104      0.1561
     23  C         41.1460   60.7870   30.5220 C.2   104  VAL104      0.2260
     24  O         40.9910   61.1700   31.6860 O.2   104  VAL104     -0.2867
     25  CB        41.8650   58.4520   30.9180 C.3   104  VAL104      0.0252
     26  CG1       40.5590   57.9170   30.3540 C.3   104  VAL104      0.0019
     27  CG2       42.9610   57.3980   30.7490 C.3   104  VAL104      0.0019
     28  N         37.9640   46.1060   32.5800 N.3   117  ASN117     -0.1240
     29  CA        39.1640   45.6490   31.9090 C.3   117  ASN117      0.1653
     30  C         39.5150   44.3460   32.6450 C.2   117  ASN117      0.2266
     31  O         39.6650   44.3530   33.8760 O.2   117  ASN117     -0.2867
     32  CB        40.2700   46.6950   32.1310 C.3   117  ASN117      0.1155
     33  CG        41.5500   46.3200   31.4420 C.2   117  ASN117      0.2627
     34  OD1       42.1570   45.3210   31.7900 O.2   117  ASN117     -0.2716
     35  ND2       41.9350   47.0710   30.4110 N.am  117  ASN117     -0.0877
     36  N         45.4560   43.5510   33.8780 N.3   120  HIS120     -0.1241
     37  CA        46.6540   43.7650   33.0800 C.3   120  HIS120      0.1621
     38  C         47.8110   42.8850   33.4450 C.2   120  HIS120      0.2264
     39  O         47.8950   42.3500   34.5470 O.2   120  HIS120     -0.2867
     40  CB        47.2110   45.1820   33.2580 C.3   120  HIS120      0.0745
     41  CG        46.2430   46.2710   32.9510 C.ar  120  HIS120      0.0817
     42  ND1       45.5020   46.3020   31.7900 N.ar  120  HIS120     -0.2268
     43  CD2       45.9120   47.3890   33.6400 C.ar  120  HIS120      0.1154
     44  CE1       44.7570   47.3900   31.7780 C.ar  120  HIS120      0.1986
     45  NE2       44.9870   48.0660   32.8890 N.ar  120  HIS120     -0.2212
     46  N         49.6690   49.2180   37.7640 N.3   124  GLU124     -0.1245
     47  CA        49.1360   50.4920   37.2940 C.3   124  GLU124      0.1567
     48  C         48.9870   51.4880   38.4300 C.2   124  GLU124      0.2260
     49  O         48.5510   51.1380   39.5240 O.2   124  GLU124     -0.2867
     50  CB        47.7820   50.2880   36.5980 C.3   124  GLU124      0.0388
     51  CG        47.1750   51.5900   36.0490 C.3   124  GLU124      0.1160
     52  CD        45.8920   51.3710   35.2440 C.2   124  GLU124      0.3649
     53  OE1       45.1620   52.3560   34.9900 O.co2 124  GLU124     -0.2457
     54  OE2       45.6090   50.2250   34.8510 O.co2 124  GLU124     -0.2457
     55  N         47.4020   55.3790   39.2560 N.3   126  LEU126     -0.1245
     56  CA        46.4440   56.3750   38.7430 C.3   126  LEU126      0.1561
     57  C         46.3960   57.6010   39.6620 C.2   126  LEU126      0.2260
     58  O         46.5840   57.4880   40.8780 O.2   126  LEU126     -0.2867
     59  CB        45.0280   55.7970   38.6230 C.3   126  LEU126      0.0270
     60  CG        44.7390   54.6190   37.6790 C.3   126  LEU126      0.0019
     61  CD1       44.8950   53.3200   38.4560 C.3   126  LEU126      0.0001
     62  CD2       43.2950   54.6980   37.1510 C.3   126  LEU126      0.0001
     63  N         39.4020   46.1560   36.3960 N.3   161  HIS161     -0.1241
     64  CA        38.9690   47.4590   36.8810 C.3   161  HIS161      0.1621
     65  C         38.2210   48.2490   35.8120 C.2   161  HIS161      0.2264
     66  O         38.3110   47.9500   34.6260 O.2   161  HIS161     -0.2867
     67  CB        40.1810   48.2700   37.4030 C.3   161  HIS161      0.0745
     68  CG        41.3090   48.3730   36.4230 C.ar  161  HIS161      0.0817
     69  ND1       42.1400   47.3100   36.1320 N.ar  161  HIS161     -0.2268
     70  CD2       41.7250   49.3960   35.6410 C.ar  161  HIS161      0.1154
     71  CE1       43.0180   47.6760   35.2160 C.ar  161  HIS161      0.1986
     72  NE2       42.7900   48.9390   34.9000 N.ar  161  HIS161     -0.2212
     73  N         36.0580   52.4270   35.3350 N.3   163  PHE163     -0.1241
     74  CA        35.6860   53.6580   36.0000 C.3   163  PHE163      0.1605
     75  C         34.9310   54.6190   35.0970 C.2   163  PHE163      0.2264
     76  O         34.9670   54.5020   33.8680 O.2   163  PHE163     -0.2867
     77  CB        36.9220   54.3610   36.5540 C.3   163  PHE163      0.0534
     78  CG        38.0080   54.5470   35.5460 C.ar  163  PHE163     -0.0203
     79  CD1       38.9920   53.5720   35.3810 C.ar  163  PHE163     -0.0042
     80  CD2       38.0280   55.6760   34.7290 C.ar  163  PHE163     -0.0042
     81  CE1       39.9820   53.7170   34.4150 C.ar  163  PHE163     -0.0003
     82  CE2       39.0100   55.8440   33.7560 C.ar  163  PHE163     -0.0003
     83  CZ        39.9970   54.8570   33.5930 C.ar  163  PHE163     -0.0000
     84  N         46.8560   57.8160   34.0030 N.3   176  ALA176     -0.1245
     85  CA        47.0210   56.4110   34.3120 C.3   176  ALA176      0.1562
     86  C         48.3920   56.0210   33.8130 C.2   176  ALA176      0.2260
     87  O         48.7200   56.2510   32.6560 O.2   176  ALA176     -0.2867
     88  CB        45.9500   55.5840   33.6090 C.3   176  ALA176      0.0290
     89  N         50.6810   52.7790   33.3490 N.3   178  ASN178     -0.1240
     90  CA        50.8360   51.3360   33.4230 C.3   178  ASN178      0.1653
     91  C         52.3490   51.0990   33.2980 C.2   178  ASN178      0.2266
     92  O         53.0310   51.7680   32.5140 O.2   178  ASN178     -0.2867
     93  CB        50.0570   50.6630   32.2920 C.3   178  ASN178      0.1155
     94  CG        48.5620   50.5420   32.6110 C.2   178  ASN178      0.2627
     95  OD1       48.0730   49.4710   32.9740 O.2   178  ASN178     -0.2716
     96  ND2       47.8460   51.6480   32.5070 N.am  178  ASN178     -0.0877
@<TRIPOS>BOND
     1     4     3    2
     2     3     2    1
     3     1     2    1
     4     7     9   ar
     5     7     6   ar
     6     5     2    1
     7     5     6    1
     8     9    11   ar
     9     6     8   ar
    10    20    18    1
    11    11    12    1
    12    11    10   ar
    13     8    10   ar
    14    18    19    1
    15    18    17    1
    16    17    14    1
    17    14    13    1
    18    14    15    1
    19    22    23    1
    20    22    21    1
    21    22    25    1
    22    15    16    2
    23    26    25    1
    24    35    33   am
    25    23    24    2
    26    27    25    1
    27    33    34    2
    28    33    32    1
    29    44    42   ar
    30    44    45   ar
    31    42    41   ar
    32    29    32    1
    33    29    28    1
    34    29    30    1
    35    93    94    1
    36    93    90    1
    37    96    94   am
    38    92    91    2
    39    94    95    2
    40    30    31    2
    41    87    86    2
    42    45    43   ar
    43    41    40    1
    44    41    43   ar
    45    37    40    1
    46    37    38    1
    47    37    36    1
    48    91    90    1
    49    89    90    1
    50    38    39    2
    51    83    82   ar
    52    83    81   ar
    53    88    85    1
    54    82    80   ar
    55    86    85    1
    56    76    75    2
    57    84    85    1
    58    81    79   ar
    59    66    65    2
    60    80    78   ar
    61    54    52   ar
    62    72    71   ar
    63    72    70   ar
    64    53    52   ar
    65    75    74    1
    66    71    69   ar
    67    52    51    1
    68    73    74    1
    69    79    78   ar
    70    78    77    1
    71    70    68   ar
    72    65    64    1
    73    74    77    1
    74    51    50    1
    75    69    68   ar
    76    63    64    1
    77    68    67    1
    78    50    47    1
    79    64    67    1
    80    62    60    1
    81    47    46    1
    82    47    48    1
    83    60    61    1
    84    60    59    1
    85    48    49    2
    86    59    56    1
    87    56    55    1
    88    56    57    1
    89    57    58    2
