@<TRIPOS>MOLECULE
tmp/1zzdA00.pdb
 139 132 0 0 0
SMALL
GASTEIGER

@<TRIPOS>ATOM
      1  N          9.6800   22.2190    8.5430 N.3   244  GLU244     -0.1245
      2  CA        10.4840   21.1680    7.9150 C.3   244  GLU244      0.1567
      3  C          9.7490   19.8370    7.7440 C.2   244  GLU244      0.2260
      4  O         10.0270   19.1320    6.7890 O.2   244  GLU244     -0.2867
      5  CB        11.8900   21.0300    8.5120 C.3   244  GLU244      0.0388
      6  CG        12.1190   19.8890    9.4640 C.3   244  GLU244      0.1160
      7  CD        13.5230   19.9260   10.0750 C.2   244  GLU244      0.3649
      8  OE1       13.6070   20.0130   11.3310 O.co2 244  GLU244     -0.2457
      9  OE2       14.5330   19.8720    9.3100 O.co2 244  GLU244     -0.2457
     10  N          4.1490   25.9030    5.6020 N.3   287  GLN287     -0.1245
     11  CA         4.9250   26.4090    4.4770 C.3   287  GLN287      0.1566
     12  C          4.3390   27.5860    3.6830 C.2   287  GLN287      0.2260
     13  O          5.0550   28.2590    2.9100 O.2   287  GLN287     -0.2867
     14  CB         5.2520   25.2700    3.5500 C.3   287  GLN287      0.0367
     15  CG         6.4160   24.4630    4.0770 C.3   287  GLN287      0.0905
     16  CD         6.9220   23.4490    3.0860 C.2   287  GLN287      0.2608
     17  OE1        6.5200   23.4360    1.9050 O.2   287  GLN287     -0.2717
     18  NE2        7.7930   22.5850    3.5570 N.am  287  GLN287     -0.0878
     19  N         31.2710   31.2550    1.3750 N.3   585  SER585     -0.1202
     20  CA        30.0720   30.4780    1.6460 C.3   585  SER585      0.2020
     21  C         29.3850   30.9730    2.9170 C.2   585  SER585      0.2619
     22  O         30.0020   31.0480    3.9780 O.2   585  SER585     -0.2717
     23  CB        30.4150   29.0030    1.8160 C.3   585  SER585      0.2103
     24  OG        29.2360   28.2580    2.0280 O.3   585  SER585     -0.2182
     25  N         28.1120   31.3130    2.8180 N.am  586  GLN586     -0.1965
     26  CA        27.3680   31.6310    4.0100 C.3   586  GLN586      0.1733
     27  C         27.4470   30.5150    5.0500 C.2   586  GLN586      0.2616
     28  O         27.0650   30.7170    6.2270 O.2   586  GLN586     -0.2715
     29  CB        25.9220   31.9770    3.6690 C.3   586  GLN586      0.0408
     30  CG        25.7890   33.3150    2.9280 C.3   586  GLN586      0.0908
     31  CD        26.7390   34.3900    3.4630 C.2   586  GLN586      0.2608
     32  OE1       27.7640   34.6640    2.8650 O.2   586  GLN586     -0.2717
     33  NE2       26.3920   34.9790    4.5840 N.am  586  GLN586     -0.0878
     34  N         27.9740   29.3600    4.6280 N.am  587  LYS587     -0.1977
     35  CA        28.0570   28.1910    5.5030 C.3   587  LYS587      0.1596
     36  C         29.2040   28.3620    6.5190 C.2   587  LYS587      0.2287
     37  O         29.0980   27.9950    7.6900 O.2   587  LYS587     -0.2864
     38  CB        28.1710   26.8970    4.6810 C.3   587  LYS587      0.0298
     39  CG        27.6570   25.6820    5.4360 C.3   587  LYS587      0.0038
     40  CD        27.2950   24.4220    4.5740 C.3   587  LYS587      0.0206
     41  CE        27.4950   23.1480    5.4920 C.3   587  LYS587      0.1093
     42  NZ        26.9130   21.8140    5.0460 N.3   587  LYS587     -0.1314
     43  N         28.0950   31.1970    8.9140 N.3   590  ILE590     -0.1245
     44  CA        27.3000   30.6970   10.0090 C.3   590  ILE590      0.1561
     45  C         28.1270   29.8610   10.9760 C.2   590  ILE590      0.2260
     46  O         27.9230   29.9600   12.1880 O.2   590  ILE590     -0.2867
     47  CB        26.0500   29.9770    9.4990 C.3   590  ILE590      0.0252
     48  CG1       25.1280   31.0000    8.8390 C.3   590  ILE590      0.0019
     49  CG2       25.3200   29.2170   10.6420 C.3   590  ILE590      0.0019
     50  CD1       23.9680   30.3950    8.0630 C.3   590  ILE590      0.0001
     51  N         23.5860   36.4870   -0.0460 N.3   610  LEU610     -0.1245
     52  CA        23.3340   35.4460   -1.0620 C.3   610  LEU610      0.1561
     53  C         23.4780   35.9610   -2.4820 C.2   610  LEU610      0.2260
     54  O         22.9480   37.0290   -2.8370 O.2   610  LEU610     -0.2867
     55  CB        21.9560   34.8250   -0.9140 C.3   610  LEU610      0.0270
     56  CG        21.6860   33.7810    0.1630 C.3   610  LEU610      0.0019
     57  CD1       20.3110   33.1780   -0.0750 C.3   610  LEU610      0.0001
     58  CD2       22.7440   32.7020    0.1640 C.3   610  LEU610      0.0001
     59  N         17.8170   31.6140   -4.3350 N.3   614  THR614     -0.1203
     60  CA        16.6030   30.8720   -4.6230 C.3   614  THR614      0.1994
     61  C         15.9070   30.6940   -3.2980 C.2   614  THR614      0.2618
     62  O         16.5470   30.8030   -2.2600 O.2   614  THR614     -0.2717
     63  CB        16.8960   29.4800   -5.2560 C.3   614  THR614      0.1784
     64  OG1       17.3540   28.5560   -4.2550 O.3   614  THR614     -0.2211
     65  CG2       18.0550   29.5490   -6.2430 C.3   614  THR614      0.0376
     66  N         14.6050   30.4190   -3.3300 N.am  615  MET615     -0.1965
     67  CA        13.8450   30.1120   -2.1220 C.3   615  MET615      0.1736
     68  C         14.4100   28.8830   -1.4090 C.2   615  MET615      0.2617
     69  O         14.3410   28.7860   -0.1810 O.2   615  MET615     -0.2715
     70  CB        12.3580   29.9320   -2.4490 C.3   615  MET615      0.0427
     71  CG        11.4730   31.1520   -2.1390 C.3   615  MET615      0.0599
     72  SD        12.1160   32.8580   -2.4600 S.3   615  MET615     -0.1393
     73  CE        12.2400   32.9770   -4.2650 C.3   615  MET615      0.0692
     74  N         14.9950   27.9580   -2.1610 N.am  616  GLY616     -0.1940
     75  CA        15.6030   26.7640   -1.5560 C.3   616  GLY616      0.2014
     76  C         16.9090   27.0040   -0.7930 C.2   616  GLY616      0.2638
     77  O         17.1460   26.4170    0.2610 O.2   616  GLY616     -0.2714
     78  N         17.7540   27.8650   -1.3430 N.am  617  LYS617     -0.1977
     79  CA        19.0270   28.2210   -0.7380 C.3   617  LYS617      0.1596
     80  C         18.7970   28.9970    0.5420 C.2   617  LYS617      0.2287
     81  O         19.5370   28.8400    1.5110 O.2   617  LYS617     -0.2864
     82  CB        19.8520   29.0730   -1.7100 C.3   617  LYS617      0.0298
     83  CG        20.8450   28.2860   -2.5860 C.3   617  LYS617      0.0038
     84  CD        21.2700   29.0710   -3.8760 C.3   617  LYS617      0.0206
     85  CE        21.9420   30.4160   -3.5250 C.3   617  LYS617      0.1093
     86  NZ        22.6190   31.1070   -4.6700 N.3   617  LYS617     -0.1314
     87  N         16.1270   28.7640    2.4260 N.3   619  THR619     -0.1203
     88  CA        15.5590   27.8000    3.3390 C.3   619  THR619      0.1994
     89  C         16.6310   26.9620    4.0070 C.2   619  THR619      0.2619
     90  O         16.4840   26.5650    5.1790 O.2   619  THR619     -0.2717
     91  CB        14.5790   26.8920    2.5560 C.3   619  THR619      0.1784
     92  OG1       13.4580   27.6690    2.1480 O.3   619  THR619     -0.2211
     93  CG2       13.9450   25.8240    3.4360 C.3   619  THR619      0.0376
     94  N         17.7010   26.6640    3.2770 N.am  620  SER620     -0.1937
     95  CA        18.7760   25.8270    3.8350 C.3   620  SER620      0.2055
     96  C         19.6450   26.6240    4.7700 C.2   620  SER620      0.2642
     97  O         20.2530   26.0900    5.6900 O.2   620  SER620     -0.2714
     98  CB        19.6320   25.2420    2.7260 C.3   620  SER620      0.2130
     99  OG        18.9380   24.1470    2.1550 O.3   620  SER620     -0.2179
    100  N         19.6800   27.9160    4.4870 N.am  621  MET621     -0.1976
    101  CA        20.4690   28.8690    5.1900 C.3   621  MET621      0.1605
    102  C         19.7830   29.2130    6.5060 C.2   621  MET621      0.2287
    103  O         20.4430   29.4060    7.5220 O.2   621  MET621     -0.2864
    104  CB        20.6330   30.1060    4.3250 C.3   621  MET621      0.0413
    105  CG        21.8350   30.9170    4.7160 C.3   621  MET621      0.0598
    106  SD        22.0850   32.4250    3.7650 S.3   621  MET621     -0.1393
    107  CE        20.5150   33.2680    4.0220 C.3   621  MET621      0.0692
    108  N         17.7170   27.0750    8.0570 N.3   623  PHE623     -0.1227
    109  CA        17.6690   25.8680    8.8680 C.3   623  PHE623      0.1736
    110  C         19.0360   25.5170    9.4120 C.2   623  PHE623      0.2595
    111  O         19.1740   25.0880   10.5520 O.2   623  PHE623     -0.2718
    112  CB        17.0090   24.7240    8.0940 C.3   623  PHE623      0.0547
    113  CG        15.5190   24.7750    8.1530 C.ar  623  PHE623     -0.0202
    114  CD1       14.8080   25.6290    7.3220 C.ar  623  PHE623     -0.0042
    115  CD2       14.8220   24.0030    9.0860 C.ar  623  PHE623     -0.0042
    116  CE1       13.4200   25.7040    7.4080 C.ar  623  PHE623     -0.0003
    117  CE2       13.4290   24.0760    9.1750 C.ar  623  PHE623     -0.0003
    118  CZ        12.7280   24.9210    8.3270 C.ar  623  PHE623     -0.0000
    119  N         20.0420   25.7840    8.6080 N.am  624  TYR624     -0.1976
    120  CA        21.4080   25.5690    9.0010 C.3   624  TYR624      0.1639
    121  C         21.7800   26.3610   10.2750 C.2   624  TYR624      0.2290
    122  O         22.2220   25.7530   11.2900 O.2   624  TYR624     -0.2864
    123  CB        22.3320   25.9160    7.8400 C.3   624  TYR624      0.0560
    124  CG        23.6930   25.3830    8.0770 C.ar  624  TYR624     -0.0198
    125  CD1       23.9110   24.0140    8.2820 C.ar  624  TYR624     -0.0009
    126  CD2       24.7610   26.2420    8.1510 C.ar  624  TYR624     -0.0009
    127  CE1       25.1870   23.5400    8.5430 C.ar  624  TYR624      0.0417
    128  CE2       26.0200   25.7920    8.4020 C.ar  624  TYR624      0.0417
    129  CZ        26.2440   24.4540    8.5970 C.ar  624  TYR624      0.1957
    130  OH        27.5430   24.0850    8.8500 O.3   624  TYR624     -0.2866
    131  N         19.5900   24.9880   13.2190 N.3   627  LYS627     -0.1245
    132  CA        20.1200   23.7490   13.8360 C.3   627  LYS627      0.1561
    133  C         21.4820   23.9510   14.4970 C.2   627  LYS627      0.2260
    134  O         21.8750   23.1670   15.3570 O.2   627  LYS627     -0.2867
    135  CB        20.2260   22.6080   12.8030 C.3   627  LYS627      0.0271
    136  CG        18.8970   21.8970   12.5150 C.3   627  LYS627      0.0035
    137  CD        19.0240   20.9480   11.3590 C.3   627  LYS627      0.0206
    138  CE        17.7510   20.9250   10.4580 C.3   627  LYS627      0.1093
    139  NZ        16.5840   20.2430   11.1190 N.3   627  LYS627     -0.1314
@<TRIPOS>BOND
     1    65    63    1
     2    63    60    1
     3    63    64    1
     4    86    85    1
     5    60    59    1
     6    60    61    1
     7    73    72    1
     8    84    85    1
     9    84    83    1
    10    66    61   am
    11    66    67    1
    12    61    62    2
    13    54    53    2
    14    83    82    1
    15    53    52    1
    16    72    71    1
    17    70    71    1
    18    70    67    1
    19    74    75    1
    20    74    68   am
    21    67    68    1
    22    82    79    1
    23    75    76    1
    24    68    69    2
    25    78    76   am
    26    78    79    1
    27    52    55    1
    28    52    51    1
    29    55    56    1
    30    76    77    2
    31    79    80    1
    32    57    56    1
    33    56    58    1
    34    80    81    2
    35    19    20    1
    36    20    23    1
    37    20    21    1
    38    23    24    1
    39    17    16    2
    40    92    91    1
    41    99    98    1
    42    87    88    1
    43    91    88    1
    44    91    93    1
    45    98    95    1
    46    25    21   am
    47    25    26    1
    48    32    31    2
    49    13    12    2
    50    21    22    2
    51    30    31    1
    52    30    29    1
    53    16    18   am
    54    16    15    1
    55    94    95    1
    56    94    89   am
    57    88    89    1
    58    31    33   am
    59    14    15    1
    60    14    11    1
    61    29    26    1
    62    12    11    1
    63   106   107    1
    64   106   105    1
    65    95    96    1
    66    89    90    2
    67    26    27    1
    68   104   105    1
    69   104   101    1
    70    11    10    1
    71   100    96   am
    72   100   101    1
    73    40    39    1
    74    40    41    1
    75    34    27   am
    76    34    35    1
    77    38    39    1
    78    38    35    1
    79    96    97    2
    80    42    41    1
    81    27    28    2
    82   101   102    1
    83    35    36    1
    84   102   103    2
    85    36    37    2
    86     4     3    2
    87   114   116   ar
    88   114   113   ar
    89   116   118   ar
    90     3     2    1
    91   123   124    1
    92   123   120    1
    93     2     5    1
    94     2     1    1
    95   108   109    1
    96    50    48    1
    97   124   126   ar
    98   124   125   ar
    99   112   113    1
   100   112   109    1
   101   126   128   ar
   102   113   115   ar
   103   125   127   ar
   104   118   117   ar
   105   128   129   ar
   106     5     6    1
   107   127   129   ar
   108   129   130    1
   109   119   120    1
   110   119   110   am
   111    48    47    1
   112   109   110    1
   113    43    44    1
   114   120   121    1
   115   115   117   ar
   116     9     7   ar
   117   110   111    2
   118     6     7    1
   119    47    44    1
   120    47    49    1
   121    44    45    1
   122     7     8   ar
   123   121   122    2
   124   138   139    1
   125   138   137    1
   126    45    46    2
   127   137   136    1
   128   136   135    1
   129   135   132    1
   130   131   132    1
   131   132   133    1
   132   133   134    2
