@<TRIPOS>MOLECULE
tmp/1zziD00.pdb
 160 153 0 0 0
SMALL
GASTEIGER

@<TRIPOS>ATOM
      1  N         50.2960   41.9170   -7.7480 N.3    12  LYS12      -0.1231
      2  CA        49.1690   42.6950   -8.2330 C.3    12  LYS12       0.1693
      3  C         48.4860   42.0170   -9.4000 C.2    12  LYS12       0.2592
      4  O         47.2920   42.1880   -9.5550 O.2    12  LYS12      -0.2718
      5  CB        49.5440   44.1210   -8.6310 C.3    12  LYS12       0.0285
      6  CG        50.6420   44.2720   -9.5640 C.3    12  LYS12       0.0035
      7  CD        50.8950   45.7400   -9.6890 C.3    12  LYS12       0.0206
      8  CE        51.9280   45.9820  -10.7110 C.3    12  LYS12       0.1093
      9  NZ        52.3200   47.4160  -10.6500 N.3    12  LYS12      -0.1314
     10  N         49.2440   41.2650  -10.1960 N.am   13  ASP13      -0.1974
     11  CA        48.6550   40.6130  -11.3570 C.3    13  ASP13       0.1709
     12  C         47.5760   39.5900  -10.9520 C.2    13  ASP13       0.2293
     13  O         46.7220   39.2240  -11.7950 O.2    13  ASP13      -0.2864
     14  CB        49.7300   39.9060  -12.1820 C.3    13  ASP13       0.1436
     15  CG        50.5510   40.8650  -13.0510 C.2    13  ASP13       0.3671
     16  OD1       50.1890   42.0750  -13.1930 O.co2  13  ASP13      -0.2456
     17  OD2       51.5530   40.3700  -13.6260 O.co2  13  ASP13      -0.2456
     18  N         43.1540   40.5470   -8.9690 N.3    16  GLY16      -0.1210
     19  CA        41.8400   40.5100   -9.5770 C.3    16  GLY16       0.1956
     20  C         41.0830   39.2510   -9.2010 C.2    16  GLY16       0.2612
     21  O         39.8570   39.2570   -9.1210 O.2    16  GLY16      -0.2717
     22  N         41.8030   38.1750   -8.9420 N.am   17  SER17      -0.1952
     23  CA        41.1490   36.8940   -8.6290 C.3    17  SER17       0.1924
     24  C         40.5620   36.9010   -7.2080 C.2    17  SER17       0.2314
     25  O         39.5440   36.2450   -6.9460 O.2    17  SER17      -0.2863
     26  CB        42.1440   35.7150   -8.7970 C.3    17  SER17       0.2116
     27  OG        43.2230   35.8510   -7.8770 O.3    17  SER17      -0.2180
     28  N         39.4990   39.6840   -5.7150 N.3    19  ILE19      -0.1231
     29  CA        38.3510   40.6120   -5.7860 C.3    19  ILE19       0.1692
     30  C         37.1690   39.9830   -6.5060 C.2    19  ILE19       0.2593
     31  O         36.0410   39.9670   -5.9800 O.2    19  ILE19      -0.2718
     32  CB        38.7610   41.9800   -6.4090 C.3    19  ILE19       0.0266
     33  CG1       39.8640   42.6200   -5.5430 C.3    19  ILE19       0.0019
     34  CG2       37.5440   42.8970   -6.5080 C.3    19  ILE19       0.0020
     35  CD1       40.5470   43.7330   -6.2220 C.3    19  ILE19       0.0001
     36  N         37.4210   39.4810   -7.7170 N.am   20  GLY20      -0.1942
     37  CA        36.4130   38.8190   -8.5450 C.3    20  GLY20       0.2014
     38  C         35.6460   39.8580   -9.2970 C.2    20  GLY20       0.2639
     39  O         35.7050   41.0280   -8.9530 O.2    20  GLY20      -0.2714
     40  N         34.9220   39.4510  -10.3260 N.am   21  LYS21      -0.1963
     41  CA        34.1610   40.4330  -11.0660 C.3    21  LYS21       0.1728
     42  C         33.1540   41.1160  -10.1500 C.2    21  LYS21       0.2617
     43  O         32.4940   40.4550   -9.3440 O.2    21  LYS21      -0.2715
     44  CB        33.4990   39.7940  -12.2890 C.3    21  LYS21       0.0311
     45  CG        34.4880   39.5380  -13.4460 C.3    21  LYS21       0.0038
     46  CD        34.8300   40.8190  -14.2190 C.3    21  LYS21       0.0206
     47  CE        35.6100   40.5100  -15.5020 C.3    21  LYS21       0.1093
     48  NZ        35.4690   41.6490  -16.4920 N.3    21  LYS21      -0.1314
     49  N         33.0820   42.4480  -10.2590 N.am   22  GLY22      -0.1940
     50  CA        32.2240   43.2840   -9.4110 C.3    22  GLY22       0.2014
     51  C         32.4930   43.0670   -7.9470 C.2    22  GLY22       0.2639
     52  O         31.6370   43.3620   -7.0820 O.2    22  GLY22      -0.2714
     53  N         33.6990   42.5800   -7.6400 N.am   23  GLY23      -0.1954
     54  CA        34.0120   42.2820   -6.2460 C.3    23  GLY23       0.1869
     55  C         33.2460   41.1320   -5.6160 C.2    23  GLY23       0.2309
     56  O         33.1630   41.0480   -4.3930 O.2    23  GLY23      -0.2863
     57  N         35.6380   38.8180   -3.1650 N.3    26  ILE26      -0.1245
     58  CA        36.0350   39.4330   -1.9140 C.3    26  ILE26       0.1561
     59  C         34.8040   39.6630   -1.0370 C.2    26  ILE26       0.2260
     60  O         34.8620   39.5640    0.1760 O.2    26  ILE26      -0.2867
     61  CB        36.8420   40.7430   -2.1000 C.3    26  ILE26       0.0252
     62  CG1       37.3740   41.3140   -0.7650 C.3    26  ILE26       0.0019
     63  CG2       36.0260   41.8680   -2.8020 C.3    26  ILE26       0.0019
     64  CD1       38.1690   40.2170    0.1150 C.3    26  ILE26       0.0001
     65  N         34.6490   38.2170    2.7000 N.3    30  ARG30      -0.1245
     66  CA        34.2440   39.0470    3.8480 C.3    30  ARG30       0.1563
     67  C         33.1160   38.4480    4.6380 C.2    30  ARG30       0.2260
     68  O         33.1570   38.4270    5.8750 O.2    30  ARG30      -0.2867
     69  CB        33.9020   40.4730    3.3930 C.3    30  ARG30       0.0307
     70  CG        35.0940   41.2590    2.8680 C.3    30  ARG30       0.0489
     71  CD        34.6380   42.6060    2.3120 C.3    30  ARG30       0.2205
     72  NE        35.8090   43.4620    2.1370 N.pl3  30  ARG30      -0.0865
     73  CZ        36.1120   44.0880    1.0070 C.cat  30  ARG30       0.5346
     74  NH1       35.3420   43.9490   -0.0790 N.pl3  30  ARG30       0.1354
     75  NH2       37.1900   44.8550    0.9660 N.pl3  30  ARG30       0.1354
     76  N         37.3630   41.9500    8.7440 N.3    36  SER36      -0.1202
     77  CA        37.3890   43.1770    7.9890 C.3    36  SER36       0.2020
     78  C         38.6170   43.0610    7.0750 C.2    36  SER36       0.2619
     79  O         39.6920   42.7590    7.5340 O.2    36  SER36      -0.2717
     80  CB        37.4460   44.3700    8.9430 C.3    36  SER36       0.2103
     81  OG        37.3850   45.5640    8.1950 O.3    36  SER36      -0.2182
     82  N         38.4250   43.2020    5.7710 N.am   37  ILE37      -0.1965
     83  CA        39.5040   43.0730    4.8040 C.3    37  ILE37       0.1727
     84  C         39.5560   44.2870    3.9000 C.2    37  ILE37       0.2616
     85  O         38.5430   44.7090    3.3410 O.2    37  ILE37      -0.2715
     86  CB        39.2510   41.8480    3.9290 C.3    37  ILE37       0.0290
     87  CG1       38.9320   40.6070    4.8070 C.3    37  ILE37       0.0022
     88  CG2       40.3990   41.6230    2.9030 C.3    37  ILE37       0.0023
     89  CD1       38.4200   39.4150    3.9680 C.3    37  ILE37       0.0001
     90  N         40.7590   44.7810    3.7010 N.am   38  LYS38      -0.1963
     91  CA        40.9980   45.9640    2.8820 C.3    38  LYS38       0.1728
     92  C         42.0740   45.5610    1.9310 C.2    38  LYS38       0.2616
     93  O         43.0680   45.0240    2.3430 O.2    38  LYS38      -0.2715
     94  CB        41.4980   47.1120    3.7620 C.3    38  LYS38       0.0311
     95  CG        42.1230   48.3190    3.0190 C.3    38  LYS38       0.0038
     96  CD        42.0770   49.5570    3.8970 C.3    38  LYS38       0.0206
     97  CE        43.3120   50.4510    3.7330 C.3    38  LYS38       0.1093
     98  NZ        44.4740   50.0660    4.6290 N.3    38  LYS38      -0.1314
     99  N         41.7970   45.6710    0.6470 N.am   39  ILE39      -0.1977
    100  CA        42.7930   45.3820   -0.3580 C.3    39  ILE39       0.1596
    101  C         43.2160   46.7590   -0.8810 C.2    39  ILE39       0.2287
    102  O         42.4320   47.4750   -1.5300 O.2    39  ILE39      -0.2864
    103  CB        42.2340   44.5760   -1.5490 C.3    39  ILE39       0.0276
    104  CG1       41.5240   43.3090   -1.0620 C.3    39  ILE39       0.0022
    105  CG2       43.3810   44.2440   -2.4650 C.3    39  ILE39       0.0022
    106  CD1       40.4670   42.7790   -2.0830 C.3    39  ILE39       0.0001
    107  N         44.7670   49.7970   -3.1120 N.3    41  GLU41      -0.1231
    108  CA        44.8800   50.0370   -4.5310 C.3    41  GLU41       0.1684
    109  C         46.2980   49.7510   -5.0040 C.2    41  GLU41       0.2434
    110  O         47.2330   49.7610   -4.1950 O.2    41  GLU41      -0.2733
    111  CB        44.5010   51.4810   -4.8090 C.3    41  GLU41       0.0402
    112  CG        43.0020   51.6820   -4.6630 C.3    41  GLU41       0.1161
    113  CD        42.2300   50.8790   -5.7010 C.2    41  GLU41       0.3649
    114  OE1       42.1980   51.3070   -6.8760 O.co2  41  GLU41      -0.2457
    115  OE2       41.6680   49.8220   -5.3630 O.co2  41  GLU41      -0.2457
    116  N         46.4640   49.4330   -6.2940 N.am   42  PRO42      -0.2729
    117  CA        47.8560   49.3120   -6.6900 C.3    42  PRO42       0.1401
    118  C         48.5840   50.6560   -6.4490 C.2    42  PRO42       0.2269
    119  O         48.0510   51.7100   -6.8030 O.2    42  PRO42      -0.2865
    120  CB        47.7930   48.9130   -8.1700 C.3    42  PRO42       0.0296
    121  CG        46.3550   49.0730   -8.5940 C.3    42  PRO42       0.0237
    122  CD        45.5070   49.1410   -7.3780 C.3    42  PRO42       0.0939
    123  N         49.9850   44.0340   -3.9980 N.3    49  ARG49      -0.1245
    124  CA        48.9770   44.8090   -3.2890 C.3    49  ARG49       0.1563
    125  C         48.8730   44.3000   -1.8620 C.2    49  ARG49       0.2260
    126  O         49.0090   43.1120   -1.6000 O.2    49  ARG49      -0.2867
    127  CB        47.6570   44.6720   -4.0000 C.3    49  ARG49       0.0307
    128  CG        47.7490   45.5580   -5.2930 C.3    49  ARG49       0.0489
    129  CD        46.6250   45.3570   -6.1570 C.3    49  ARG49       0.2205
    130  NE        45.4710   46.0160   -5.5700 N.pl3  49  ARG49      -0.0865
    131  CZ        44.2940   45.9720   -6.1490 C.cat  49  ARG49       0.5346
    132  NH1       44.1950   45.3390   -7.3000 N.pl3  49  ARG49       0.1354
    133  NH2       43.2630   46.5890   -5.6170 N.pl3  49  ARG49       0.1354
    134  N         41.3620   30.5570   -8.8980 N.3    73  GLN73      -0.1231
    135  CA        40.4280   30.9600   -9.9180 C.3    73  GLN73       0.1698
    136  C         41.0140   32.0410  -10.8070 C.2    73  GLN73       0.2592
    137  O         40.3250   32.6570  -11.6080 O.2    73  GLN73      -0.2718
    138  CB        39.0990   31.4380   -9.3150 C.3    73  GLN73       0.0381
    139  CG        37.9460   30.6310   -9.7370 C.3    73  GLN73       0.0905
    140  CD        36.6600   31.0410   -9.0400 C.2    73  GLN73       0.2608
    141  OE1       36.6930   31.4130   -7.9170 O.2    73  GLN73      -0.2717
    142  NE2       35.5720   31.0490   -9.7400 N.am   73  GLN73      -0.0878
    143  N         42.3050   32.2770  -10.6580 N.am   74  TYR74      -0.1962
    144  CA        42.9900   33.3090  -11.4550 C.3    74  TYR74       0.1771
    145  C         42.8590   32.9340  -12.8670 C.2    74  TYR74       0.2620
    146  O         43.0010   31.7350  -13.2620 O.2    74  TYR74      -0.2715
    147  CB        44.4790   33.4030  -11.0410 C.3    74  TYR74       0.0574
    148  CG        45.3030   34.3500  -11.8870 C.ar   74  TYR74      -0.0198
    149  CD1       44.9370   35.6870  -12.0500 C.ar   74  TYR74      -0.0009
    150  CD2       46.4780   33.9150  -12.4460 C.ar   74  TYR74      -0.0009
    151  CE1       45.7660   36.5600  -12.8210 C.ar   74  TYR74       0.0417
    152  CE2       47.2940   34.7290  -13.2080 C.ar   74  TYR74       0.0417
    153  CZ        46.9430   36.0700  -13.3740 C.ar   74  TYR74       0.1957
    154  OH        47.7520   36.8690  -14.1560 O.3    74  TYR74      -0.2866
    155  N         42.5830   33.9400  -13.6750 N.am   75  SER75      -0.1950
    156  CA        42.2630   33.6830  -15.0670 C.3    75  SER75       0.1924
    157  C         43.5150   33.6270  -15.9130 C.2    75  SER75       0.2314
    158  O         43.4290   33.3010  -17.0870 O.2    75  SER75      -0.2863
    159  CB        41.3440   34.7940  -15.5960 C.3    75  SER75       0.2116
    160  OG        41.9700   36.0490  -15.4710 O.3    75  SER75      -0.2180
@<TRIPOS>BOND
     1   158   157    2
     2    48    47    1
     3   157   156    1
     4   159   160    1
     5   159   156    1
     6    47    46    1
     7   156   155    1
     8    46    45    1
     9   154   153    1
    10   155   145   am
    11    17    15   ar
    12    45    44    1
    13   153   152   ar
    14   153   151   ar
    15   146   145    2
    16   152   150   ar
    17    16    15   ar
    18    15    14    1
    19   145   144    1
    20   151   149   ar
    21   150   148   ar
    22    44    41    1
    23    14    11    1
    24   149   148   ar
    25   148   147    1
    26    13    12    2
    27   137   136    2
    28   144   147    1
    29   144   143    1
    30    11    12    1
    31    11    10    1
    32    41    40    1
    33    41    42    1
    34   136   143   am
    35   136   135    1
    36     8     9    1
    37     8     7    1
    38    40    38   am
    39    49    42   am
    40    49    50    1
    41    10     3   am
    42    42    43    2
    43   135   138    1
    44   135   134    1
    45   142   140   am
    46   139   138    1
    47   139   140    1
    48     7     6    1
    49    19    20    1
    50    19    18    1
    51     6     5    1
    52     4     3    2
    53    50    51    1
    54     3     2    1
    55    38    39    2
    56    38    37    1
    57    20    21    2
    58    20    22   am
    59   140   141    2
    60    22    23    1
    61    26    23    1
    62    26    27    1
    63     5     2    1
    64    23    24    1
    65   121   120    1
    66   121   122    1
    67    37    36    1
    68     2     1    1
    69   120   117    1
    70    51    53   am
    71    51    52    2
    72    36    30   am
    73    53    54    1
    74   122   116    1
    75   132   131    1
    76    24    25    2
    77   114   113   ar
    78   119   118    2
    79   117   118    1
    80   117   116    1
    81    34    32    1
    82    30    31    2
    83    30    29    1
    84    32    29    1
    85    32    33    1
    86   116   109   am
    87    54    55    1
    88    35    33    1
    89   129   130    1
    90   129   128    1
    91   131   133    1
    92   131   130    2
    93    29    28    1
    94   113   115   ar
    95   113   112    1
    96    55    56    2
    97   128   127    1
    98   109   108    1
    99   109   110    2
   100   111   112    1
   101   111   108    1
   102   108   107    1
   103   127   124    1
   104   123   124    1
   105   124   125    1
   106    57    58    1
   107    63    61    1
   108   105   103    1
   109    61    58    1
   110    61    62    1
   111   106   104    1
   112    58    59    1
   113   125   126    2
   114   103   104    1
   115   103   100    1
   116   102   101    2
   117    59    60    2
   118   101   100    1
   119    62    64    1
   120   100    99    1
   121    74    73    1
   122    99    92   am
   123    75    73    1
   124    73    72    2
   125    92    93    2
   126    92    91    1
   127    72    71    1
   128    71    70    1
   129    65    66    1
   130    70    69    1
   131    91    90    1
   132    91    94    1
   133    88    86    1
   134    95    94    1
   135    95    96    1
   136    85    84    2
   137    69    66    1
   138    90    84   am
   139    97    96    1
   140    97    98    1
   141    66    67    1
   142    84    83    1
   143    86    83    1
   144    86    87    1
   145    89    87    1
   146    67    68    2
   147    83    82    1
   148    82    78   am
   149    78    79    2
   150    78    77    1
   151    77    76    1
   152    77    80    1
   153    81    80    1
