@<TRIPOS>MOLECULE
tmp/1zzlA00.pdb
 159 149 0 0 0
SMALL
GASTEIGER

@<TRIPOS>ATOM
      1  N         -1.4390   10.4670   21.9150 N.3    27  VAL27      -0.1245
      2  CA        -2.4840   10.3460   22.9280 C.3    27  VAL27       0.1561
      3  C         -2.7370   11.7030   23.5940 C.2    27  VAL27       0.2260
      4  O         -1.8990   12.6190   23.5640 O.2    27  VAL27      -0.2867
      5  CB        -2.1490    9.2840   23.9860 C.3    27  VAL27       0.0252
      6  CG1       -3.4150    8.6830   24.5820 C.3    27  VAL27       0.0019
      7  CG2       -1.3670    8.1670   23.3720 C.3    27  VAL27       0.0019
      8  N         -1.6780   16.8500   26.8380 N.3    32  TYR32      -0.1241
      9  CA        -0.4520   16.5640   27.6060 C.3    32  TYR32       0.1605
     10  C          0.8210   17.0400   26.9470 C.2    32  TYR32       0.2264
     11  O          1.9120   16.8190   27.4720 O.2    32  TYR32      -0.2867
     12  CB        -0.3490   15.0650   27.7980 C.3    32  TYR32       0.0534
     13  CG        -1.5940   14.5530   28.3750 C.ar   32  TYR32      -0.0201
     14  CD1       -1.9790   14.9320   29.6720 C.ar   32  TYR32      -0.0009
     15  CD2       -2.4290   13.7230   27.6360 C.ar   32  TYR32      -0.0009
     16  CE1       -3.1440   14.4840   30.2300 C.ar   32  TYR32       0.0417
     17  CE2       -3.6250   13.2660   28.1880 C.ar   32  TYR32       0.0417
     18  CZ        -3.9730   13.6650   29.4860 C.ar   32  TYR32       0.1957
     19  OH        -5.1400   13.2050   30.0360 O.3    32  TYR32      -0.2866
     20  N          2.9220   13.9300   23.0880 N.3    35  VAL35      -0.1245
     21  CA         3.0780   12.6690   23.7900 C.3    35  VAL35       0.1561
     22  C          2.4600   11.5110   22.9580 C.2    35  VAL35       0.2260
     23  O          1.3810   11.6680   22.3400 O.2    35  VAL35      -0.2867
     24  CB         2.4130   12.7130   25.2070 C.3    35  VAL35       0.0252
     25  CG1        2.5680   11.3730   25.9370 C.3    35  VAL35       0.0019
     26  CG2        2.9860   13.9030   26.0950 C.3    35  VAL35       0.0019
     27  N          4.6970    6.2710   27.8430 N.3    48  ALA48      -0.1245
     28  CA         4.3520    7.5400   27.2370 C.3    48  ALA48       0.1562
     29  C          5.6470    8.2130   26.9210 C.2    48  ALA48       0.2260
     30  O          6.5270    8.2830   27.7660 O.2    48  ALA48      -0.2867
     31  CB         3.4530    8.4090   28.2040 C.3    48  ALA48       0.0290
     32  N          7.3830   11.5690   25.5910 N.3    50  LYS50      -0.1245
     33  CA         7.1500   13.0020   25.2650 C.3    50  LYS50       0.1561
     34  C          8.3300   13.6180   24.5150 C.2    50  LYS50       0.2260
     35  O          9.4760   13.5440   25.0050 O.2    50  LYS50      -0.2867
     36  CB         6.8300   13.8320   26.5150 C.3    50  LYS50       0.0271
     37  CG         6.6130   15.3400   26.2380 C.3    50  LYS50       0.0035
     38  CD         5.9350   16.1490   27.4020 C.3    50  LYS50       0.0206
     39  CE         6.7420   16.1780   28.7120 C.3    50  LYS50       0.1093
     40  NZ         5.9050   16.8490   29.7200 N.3    50  LYS50      -0.1314
     41  N         12.3710   20.4900   34.1830 N.3    68  GLU68      -0.1245
     42  CA        11.5530   19.2910   34.1030 C.3    68  GLU68       0.1567
     43  C         12.4150   17.9930   34.1160 C.2    68  GLU68       0.2260
     44  O         12.0690   16.9700   34.6970 O.2    68  GLU68      -0.2867
     45  CB        10.6820   19.3810   32.8800 C.3    68  GLU68       0.0388
     46  CG         9.5020   18.4110   33.0030 C.3    68  GLU68       0.1160
     47  CD         8.6920   18.2600   31.7260 C.2    68  GLU68       0.3649
     48  OE1        8.8580   19.1080   30.8500 O.co2  68  GLU68      -0.2457
     49  OE2        7.8510   17.3200   31.6490 O.co2  68  GLU68      -0.2457
     50  N         12.0630   15.0760   37.0140 N.3    72  LEU72      -0.1245
     51  CA        11.7470   13.6860   36.6170 C.3    72  LEU72       0.1561
     52  C         12.8470   12.6720   36.9600 C.2    72  LEU72       0.2260
     53  O         12.5500   11.5610   37.4340 O.2    72  LEU72      -0.2867
     54  CB        11.4070   13.6170   35.1300 C.3    72  LEU72       0.0270
     55  CG        10.1350   14.3100   34.6790 C.3    72  LEU72       0.0019
     56  CD1       10.1980   14.5100   33.1200 C.3    72  LEU72       0.0001
     57  CD2        8.8980   13.5340   35.0690 C.3    72  LEU72       0.0001
     58  N          5.1290   10.2310   38.8230 N.3    81  ILE81      -0.1245
     59  CA         5.6630   10.0270   37.4540 C.3    81  ILE81       0.1561
     60  C          7.1890   10.2180   37.4740 C.2    81  ILE81       0.2260
     61  O          7.6980   11.2590   37.9150 O.2    81  ILE81      -0.2867
     62  CB         4.9570   11.0310   36.4410 C.3    81  ILE81       0.0252
     63  CG1        3.6420   10.4140   35.9020 C.3    81  ILE81       0.0019
     64  CG2        5.8220   11.4280   35.2680 C.3    81  ILE81       0.0019
     65  CD1        3.7840    8.9940   35.3110 C.3    81  ILE81       0.0001
     66  N         11.1530    8.7980   35.3620 N.3    83  LEU83      -0.1245
     67  CA        11.7480    8.5040   34.0780 C.3    83  LEU83       0.1561
     68  C         12.1010    7.0240   33.9060 C.2    83  LEU83       0.2260
     69  O         12.8340    6.4310   34.7190 O.2    83  LEU83      -0.2867
     70  CB        12.9990    9.3530   33.8720 C.3    83  LEU83       0.0270
     71  CG        12.8420   10.7640   33.3170 C.3    83  LEU83       0.0019
     72  CD1       14.2120   11.3030   33.0790 C.3    83  LEU83       0.0001
     73  CD2       12.0550   10.7900   32.0080 C.3    83  LEU83       0.0001
     74  N         11.4140   12.1180   26.5040 N.3   101  LEU101     -0.1231
     75  CA        11.2880   11.5960   27.8530 C.3   101  LEU101      0.1693
     76  C         10.2850   10.4740   27.8120 C.2   101  LEU101      0.2592
     77  O          9.2530   10.5660   27.1290 O.2   101  LEU101     -0.2718
     78  CB        10.7910   12.6750   28.8360 C.3   101  LEU101      0.0284
     79  CG        11.4130   14.0770   28.7520 C.3   101  LEU101      0.0019
     80  CD1       10.4160   15.0110   29.3400 C.3   101  LEU101      0.0001
     81  CD2       12.7530   14.1040   29.5470 C.3   101  LEU101      0.0001
     82  N         10.5500    9.4510   28.6110 N.am  102  VAL102     -0.1966
     83  CA         9.7380    8.2410   28.5590 C.3   102  VAL102      0.1727
     84  C          9.3200    7.8560   29.9630 C.2   102  VAL102      0.2617
     85  O         10.1630    7.8570   30.8480 O.2   102  VAL102     -0.2715
     86  CB        10.5700    7.0630   27.9170 C.3   102  VAL102      0.0290
     87  CG1        9.7120    5.8670   27.8370 C.3   102  VAL102      0.0023
     88  CG2       11.0160    7.4580   26.5300 C.3   102  VAL102      0.0023
     89  N          8.0170    7.5710   30.1790 N.am  103  THR103     -0.1937
     90  CA         7.5450    7.0770   31.4920 C.3   103  THR103      0.2028
     91  C          6.4090    6.1170   31.2470 C.2   103  THR103      0.2642
     92  O          6.0330    5.9040   30.1110 O.2   103  THR103     -0.2714
     93  CB         7.0900    8.2750   32.4080 C.3   103  THR103      0.1808
     94  OG1        6.9020    7.8280   33.7670 O.3   103  THR103     -0.2208
     95  CG2        5.7320    8.8700   31.9700 C.3   103  THR103      0.0379
     96  N          5.8580    5.5820   32.3160 N.am  104  HIS104     -0.1959
     97  CA         4.7600    4.6080   32.3020 C.3   104  HIS104      0.1787
     98  C          3.5190    5.2620   31.7610 C.2   104  HIS104      0.2620
     99  O          3.2540    6.4250   32.0160 O.2   104  HIS104     -0.2715
    100  CB         4.4050    4.1720   33.7320 C.3   104  HIS104      0.0785
    101  CG         5.5310    3.5410   34.4870 C.ar  104  HIS104      0.0821
    102  ND1        6.4820    4.2770   35.1620 N.ar  104  HIS104     -0.2267
    103  CD2        5.8560    2.2340   34.6730 C.ar  104  HIS104      0.1154
    104  CE1        7.3250    3.4460   35.7600 C.ar  104  HIS104      0.1986
    105  NE2        6.9720    2.2000   35.4720 N.ar  104  HIS104     -0.2212
    106  N          2.7750    4.5170   30.9670 N.am  105  LEU105     -0.1963
    107  CA         1.5670    5.0780   30.3870 C.3   105  LEU105      0.1728
    108  C          0.5180    4.5400   31.2790 C.2   105  LEU105      0.2616
    109  O          0.3990    3.3250   31.4320 O.2   105  LEU105     -0.2715
    110  CB         1.3450    4.5740   28.9620 C.3   105  LEU105      0.0311
    111  CG         0.0180    4.9080   28.2690 C.3   105  LEU105      0.0022
    112  CD1        0.0450    6.3250   27.8460 C.3   105  LEU105      0.0001
    113  CD2       -0.1730    4.0120   27.0110 C.3   105  LEU105      0.0001
    114  N         -0.1870    5.4490   31.9470 N.am  106  MET106     -0.1963
    115  CA        -1.2480    5.0610   32.8480 C.3   106  MET106      0.1736
    116  C         -2.5430    4.8790   32.0400 C.2   106  MET106      0.2617
    117  O         -3.2900    3.9230   32.2460 O.2   106  MET106     -0.2715
    118  CB        -1.3900    6.1260   33.9190 C.3   106  MET106      0.0427
    119  CG        -0.1080    6.2390   34.8300 C.3   106  MET106      0.0599
    120  SD         0.3120    4.6900   35.6750 S.3   106  MET106     -0.1393
    121  CE        -0.8510    4.6120   37.1300 C.3   106  MET106      0.0692
    122  N         -2.8070    5.8000   31.1180 N.am  107  GLY107     -0.1940
    123  CA        -3.8950    5.6020   30.1930 C.3   107  GLY107      0.2014
    124  C         -5.0480    6.5690   30.3470 C.2   107  GLY107      0.2639
    125  O         -5.6950    6.8970   29.3450 O.2   107  GLY107     -0.2714
    126  N         -5.3260    7.0070   31.5730 N.am  108  ALA108     -0.1963
    127  CA        -6.3460    8.0610   31.7670 C.3   108  ALA108      0.1728
    128  C         -5.9520    8.9590   32.9620 C.2   108  ALA108      0.2616
    129  O         -4.9960    8.6210   33.7060 O.2   108  ALA108     -0.2715
    130  CB        -7.7240    7.4380   31.9890 C.3   108  ALA108      0.0334
    131  N         -6.6510   10.0850   33.0960 N.am  109  ASP109     -0.1971
    132  CA        -6.5330   10.9120   34.2760 C.3   109  ASP109      0.1709
    133  C         -7.7480   10.7760   35.1410 C.2   109  ASP109      0.2293
    134  O         -8.7690   10.3100   34.6770 O.2   109  ASP109     -0.2864
    135  CB        -6.1750   12.3690   33.9800 C.3   109  ASP109      0.1436
    136  CG        -7.2910   13.1510   33.2960 C.2   109  ASP109      0.3671
    137  OD1       -8.4320   13.0120   33.6770 O.co2 109  ASP109     -0.2456
    138  OD2       -7.1220   13.9370   32.3410 O.co2 109  ASP109     -0.2456
    139  N         -2.6290   10.6560   37.0380 N.3   154  ALA154     -0.1245
    140  CA        -2.7220    9.6720   35.9660 C.3   154  ALA154      0.1562
    141  C         -3.0810    8.3390   36.5880 C.2   154  ALA154      0.2260
    142  O         -2.4330    7.8940   37.5340 O.2   154  ALA154     -0.2867
    143  CB        -1.4050    9.6140   35.1650 C.3   154  ALA154      0.0290
    144  N          1.3200   13.6550   38.1230 N.3   164  LEU164     -0.1231
    145  CA         2.0050   14.3520   37.0140 C.3   164  LEU164      0.1693
    146  C          2.2440   15.8440   37.2450 C.2   164  LEU164      0.2592
    147  O          1.5730   16.4920   38.0550 O.2   164  LEU164     -0.2718
    148  CB         1.1090   14.3530   35.7790 C.3   164  LEU164      0.0284
    149  CG         0.2250   13.2340   35.2920 C.3   164  LEU164      0.0019
    150  CD1       -0.3300   13.6960   33.9380 C.3   164  LEU164      0.0001
    151  CD2        1.1340   12.0620   35.1030 C.3   164  LEU164      0.0001
    152  N          3.1450   16.4020   36.4410 N.am  165  ASP165     -0.1974
    153  CA         3.3400   17.8440   36.3220 C.3   165  ASP165      0.1709
    154  C          3.6950   18.6240   37.6010 C.2   165  ASP165      0.2293
    155  O          3.3510   19.7910   37.7250 O.2   165  ASP165     -0.2864
    156  CB         2.1210   18.4780   35.6570 C.3   165  ASP165      0.1436
    157  CG         2.1140   18.2790   34.1340 C.2   165  ASP165      0.3671
    158  OD1        3.0760   17.7320   33.5260 O.co2 165  ASP165     -0.2456
    159  OD2        1.1600   18.6550   33.4590 O.co2 165  ASP165     -0.2456
@<TRIPOS>BOND
     1     1     2    1
     2    23    22    2
     3     2     3    1
     4     2     5    1
     5    22    21    1
     6    20    21    1
     7     7     5    1
     8     4     3    2
     9    21    24    1
    10     5     6    1
    11    34    35    2
    12    34    33    1
    13    24    25    1
    14    24    26    1
    15    33    32    1
    16    33    36    1
    17    37    36    1
    18    37    38    1
    19    74    75    1
    20    88    86    1
    21     8     9    1
    22    29    28    1
    23    29    30    2
    24    10    11    2
    25    10     9    1
    26   113   111    1
    27    77    76    2
    28    28    27    1
    29    28    31    1
    30    38    39    1
    31     9    12    1
    32    15    17   ar
    33    15    13   ar
    34    12    13    1
    35    76    75    1
    36    76    82   am
    37    87    86    1
    38   112   111    1
    39    75    78    1
    40    86    83    1
    41    17    18   ar
    42   111   110    1
    43    13    14   ar
    44    83    82    1
    45    83    84    1
    46    39    40    1
    47    79    78    1
    48    79    80    1
    49    79    81    1
    50   110   107    1
    51   125   124    2
    52    18    19    1
    53    18    16   ar
    54    14    16   ar
    55    84    89   am
    56    84    85    2
    57    92    91    2
    58    89    90    1
    59   123   124    1
    60   123   122    1
    61   124   126   am
    62   107   106    1
    63   107   108    1
    64    48    47   ar
    65   106    98   am
    66   122   116   am
    67    91    90    1
    68    91    96   am
    69   108   109    2
    70   108   114   am
    71    90    93    1
    72   126   127    1
    73    49    47   ar
    74    47    46    1
    75    98    99    2
    76    98    97    1
    77   127   130    1
    78   127   128    1
    79   114   115    1
    80    95    93    1
    81    73    71    1
    82   116   117    2
    83   116   115    1
    84    97    96    1
    85    97   100    1
    86   138   136   ar
    87    93    94    1
    88   115   118    1
    89    45    46    1
    90    45    42    1
    91   128   131   am
    92   128   129    2
    93    72    71    1
    94   131   132    1
    95    56    55    1
    96   136   137   ar
    97   136   135    1
    98    71    70    1
    99   159   157   ar
   100   158   157   ar
   101   100   101    1
   102    70    67    1
   103    68    67    1
   104    68    69    2
   105   118   119    1
   106   150   149    1
   107   135   132    1
   108    67    66    1
   109    42    43    1
   110    42    41    1
   111    43    44    2
   112   157   156    1
   113   132   133    1
   114   101   103   ar
   115   101   102   ar
   116   103   105   ar
   117   134   133    2
   118    55    57    1
   119    55    54    1
   120   119   120    1
   121   151   149    1
   122    54    51    1
   123   102   104   ar
   124   143   140    1
   125    64    62    1
   126   149   148    1
   127    65    63    1
   128   105   104   ar
   129   156   153    1
   130   120   121    1
   131   148   145    1
   132    63    62    1
   133   140   141    1
   134   140   139    1
   135   153   152    1
   136   153   154    1
   137   152   146   am
   138    62    59    1
   139   141   142    2
   140    51    52    1
   141    51    50    1
   142    52    53    2
   143   145   146    1
   144   145   144    1
   145   146   147    2
   146    59    60    1
   147    59    58    1
   148    60    61    2
   149   154   155    2
