@<TRIPOS>MOLECULE
tmp/1zzmA00.pdb
 170 166 0 0 0
SMALL
GASTEIGER

@<TRIPOS>ATOM
      1  N         30.7740   10.6960   42.4080 N.3    11  HIS11      -0.1241
      2  CA        30.5700   11.3680   43.6900 C.3    11  HIS11       0.1621
      3  C         31.1280   12.7780   43.5440 C.2    11  HIS11       0.2264
      4  O         32.1400   13.1540   44.1460 O.2    11  HIS11      -0.2867
      5  CB        31.2900   10.5840   44.7870 C.3    11  HIS11       0.0745
      6  CG        30.6500    9.2570   45.0670 C.ar   11  HIS11       0.0817
      7  ND1       29.4980    9.1400   45.8070 N.ar   11  HIS11      -0.2268
      8  CD2       30.9280    8.0140   44.6070 C.ar   11  HIS11       0.1154
      9  CE1       29.0800    7.8890   45.7880 C.ar   11  HIS11       0.1986
     10  NE2       29.9280    7.1850   45.0600 N.ar   11  HIS11      -0.2212
     11  N         32.2400   15.4390   46.3830 N.3    14  PHE14      -0.1241
     12  CA        33.4660   15.2420   47.1630 C.3    14  PHE14       0.1605
     13  C         34.6720   15.8400   46.4330 C.2    14  PHE14       0.2264
     14  O         34.5970   16.1740   45.2450 O.2    14  PHE14      -0.2867
     15  CB        33.7580   13.7530   47.3360 C.3    14  PHE14       0.0534
     16  CG        32.8920   13.0620   48.3510 C.ar   14  PHE14      -0.0203
     17  CD1       31.5700   12.7020   48.0480 C.ar   14  PHE14      -0.0042
     18  CD2       33.3940   12.7770   49.6210 C.ar   14  PHE14      -0.0042
     19  CE1       30.7530   12.0660   49.0190 C.ar   14  PHE14      -0.0003
     20  CE2       32.5960   12.1470   50.5840 C.ar   14  PHE14      -0.0003
     21  CZ        31.2720   11.7900   50.2910 C.ar   14  PHE14      -0.0000
     22  N         25.6320    9.7400   49.7500 N.3    41  THR41      -0.1218
     23  CA        26.1770    8.7120   50.6390 C.3    41  THR41       0.1862
     24  C         25.5590    8.7090   52.0250 C.2    41  THR41       0.2287
     25  O         25.5990    7.7000   52.7350 O.2    41  THR41      -0.2866
     26  CB        27.6860    8.9090   50.8270 C.3    41  THR41       0.1770
     27  OG1       27.9270   10.2530   51.3050 O.3    41  THR41      -0.2211
     28  CG2       28.4400    8.6750   49.4630 C.3    41  THR41       0.0375
     29  N         24.5370    5.1170   51.9070 N.3    66  HIS66      -0.1227
     30  CA        25.6090    4.2040   51.5100 C.3    66  HIS66       0.1737
     31  C         26.0440    3.2580   52.6300 C.2    66  HIS66       0.2438
     32  O         26.2130    3.6780   53.7770 O.2    66  HIS66      -0.2733
     33  CB        26.7880    5.0710   51.0070 C.3    66  HIS66       0.0758
     34  CG        27.8020    4.3300   50.1840 C.ar   66  HIS66       0.0818
     35  ND1       28.5600    3.2940   50.6860 N.ar   66  HIS66      -0.2268
     36  CD2       28.2690    4.5620   48.9300 C.ar   66  HIS66       0.1154
     37  CE1       29.4530    2.9200   49.7830 C.ar   66  HIS66       0.1986
     38  NE2       29.2990    3.6770   48.7080 N.ar   66  HIS66      -0.2212
     39  N         26.2230    1.9550   52.3240 N.am   67  PRO67      -0.2718
     40  CA        26.6290    1.0150   53.3780 C.3    67  PRO67       0.1535
     41  C         27.9780    1.3630   54.0010 C.2    67  PRO67       0.2599
     42  O         28.2330    1.0350   55.1670 O.2    67  PRO67      -0.2715
     43  CB        26.6290   -0.3470   52.6640 C.3    67  PRO67       0.0310
     44  CG        26.9160    0.0040   51.2100 C.3    67  PRO67       0.0237
     45  CD        26.0980    1.2780   51.0150 C.3    67  PRO67       0.0939
     46  N         28.8040    2.0570   53.2270 N.am   68  GLY68      -0.1941
     47  CA        30.1300    2.4430   53.7160 C.3    68  GLY68       0.2014
     48  C         30.0550    3.4890   54.8100 C.2    68  GLY68       0.2639
     49  O         31.0060    3.6870   55.5520 O.2    68  GLY68      -0.2714
     50  N         28.9200    4.1610   54.9170 N.am   69  MET69      -0.1963
     51  CA        28.7010    5.1800   55.9420 C.3    69  MET69       0.1736
     52  C         27.6670    4.6940   56.9740 C.2    69  MET69       0.2616
     53  O         26.9890    5.5030   57.6220 O.2    69  MET69      -0.2715
     54  CB        28.1830    6.4720   55.2900 C.3    69  MET69       0.0427
     55  CG        29.2460    7.2580   54.5200 C.3    69  MET69       0.0599
     56  SD        29.8630    6.4760   53.0160 S.3    69  MET69      -0.1393
     57  CE        30.9130    7.8620   52.3370 C.3    69  MET69       0.0692
     58  N         27.5720    3.3830   57.1450 N.am   70  LEU70      -0.1963
     59  CA        26.5740    2.8130   58.0530 C.3    70  LEU70       0.1728
     60  C         26.5160    3.4590   59.4290 C.2    70  LEU70       0.2616
     61  O         25.4330    3.6660   59.9820 O.2    70  LEU70      -0.2715
     62  CB        26.7840    1.2950   58.2130 C.3    70  LEU70       0.0311
     63  CG        25.6740    0.6230   59.0380 C.3    70  LEU70       0.0022
     64  CD1       24.3570    0.7980   58.3180 C.3    70  LEU70       0.0001
     65  CD2       25.9600   -0.8540   59.2550 C.3    70  LEU70       0.0001
     66  N         27.6810    3.8010   59.9730 N.am   71  GLU71      -0.1977
     67  CA        27.7320    4.3820   61.3020 C.3    71  GLU71       0.1602
     68  C         27.0150    5.7110   61.4300 C.2    71  GLU71       0.2287
     69  O         26.6430    6.1000   62.5330 O.2    71  GLU71      -0.2864
     70  CB        29.1900    4.5450   61.7540 C.3    71  GLU71       0.0415
     71  CG        29.9420    3.2250   61.9040 C.3    71  GLU71       0.1163
     72  CD        31.3400    3.4180   62.5180 C.2    71  GLU71       0.3649
     73  OE1       32.0560    4.3740   62.1140 O.co2  71  GLU71      -0.2457
     74  OE2       31.7260    2.6120   63.4000 O.co2  71  GLU71      -0.2457
     75  N         28.1550   -4.1500   51.6140 N.3   101  ASP101     -0.1239
     76  CA        29.6080   -4.1630   51.4160 C.3   101  ASP101      0.1674
     77  C         30.1840   -4.9920   52.5700 C.2   101  ASP101      0.2266
     78  O         30.0810   -4.5800   53.7290 O.2   101  ASP101     -0.2867
     79  CB        30.0920   -2.7170   51.4940 C.3   101  ASP101      0.1410
     80  CG        31.5690   -2.5640   51.1910 C.2   101  ASP101      0.3668
     81  OD1       32.3340   -3.4430   51.6040 O.co2 101  ASP101     -0.2456
     82  OD2       31.9630   -1.5590   50.5430 O.co2 101  ASP101     -0.2456
     83  N         33.2800   -5.5190   53.3510 N.3   103  PHE103     -0.1241
     84  CA        34.6460   -5.1720   53.6820 C.3   103  PHE103      0.1605
     85  C         34.7120   -4.7390   55.1470 C.2   103  PHE103      0.2264
     86  O         33.8050   -4.0600   55.6440 O.2   103  PHE103     -0.2867
     87  CB        35.1330   -4.0130   52.8180 C.3   103  PHE103      0.0534
     88  CG        36.6050   -3.7930   52.9190 C.ar  103  PHE103     -0.0203
     89  CD1       37.4870   -4.6490   52.2630 C.ar  103  PHE103     -0.0042
     90  CD2       37.1200   -2.7870   53.7330 C.ar  103  PHE103     -0.0042
     91  CE1       38.8660   -4.5080   52.4210 C.ar  103  PHE103     -0.0003
     92  CE2       38.4930   -2.6350   53.8990 C.ar  103  PHE103     -0.0003
     93  CZ        39.3700   -3.4990   53.2420 C.ar  103  PHE103     -0.0000
     94  N         34.2120   -5.8610   60.9400 N.3   106  ASP106     -0.1225
     95  CA        32.8240   -6.0090   61.3920 C.3   106  ASP106      0.1790
     96  C         31.9100   -5.1020   60.6080 C.2   106  ASP106      0.2440
     97  O         31.5750   -3.9940   61.0180 O.2   106  ASP106     -0.2733
     98  CB        32.6290   -5.7490   62.8790 C.3   106  ASP106      0.1423
     99  CG        31.1900   -6.0030   63.3050 C.2   106  ASP106      0.3668
    100  OD1       30.4680   -6.7700   62.5850 O.co2 106  ASP106     -0.2456
    101  OD2       30.7850   -5.4340   64.3430 O.co2 106  ASP106     -0.2456
    102  N         31.4990   -5.5780   59.4400 N.am  107  PRO107     -0.2718
    103  CA        30.6210   -4.8460   58.5380 C.3   107  PRO107      0.1535
    104  C         29.1720   -4.6530   59.0320 C.2   107  PRO107      0.2598
    105  O         28.4040   -3.9280   58.4060 O.2   107  PRO107     -0.2715
    106  CB        30.7110   -5.6660   57.2590 C.3   107  PRO107      0.0310
    107  CG        30.8260   -7.0640   57.7820 C.3   107  PRO107      0.0237
    108  CD        31.8240   -6.9110   58.9050 C.3   107  PRO107      0.0939
    109  N         28.8040   -5.2730   60.1460 N.am  108  GLN108     -0.1978
    110  CA        27.4330   -5.1330   60.6720 C.3   108  GLN108      0.1601
    111  C         26.4580   -5.4650   59.5290 C.2   108  GLN108      0.2287
    112  O         25.5530   -4.6980   59.2000 O.2   108  GLN108     -0.2864
    113  CB        27.2170   -3.7190   61.1740 C.3   108  GLN108      0.0394
    114  CG        28.0320   -3.3980   62.4300 C.3   108  GLN108      0.0908
    115  CD        27.8800   -1.9680   62.8830 C.2   108  GLN108      0.2608
    116  OE1       26.7680   -1.5020   63.1550 O.2   108  GLN108     -0.2717
    117  NE2       29.0000   -1.2580   62.9850 N.am  108  GLN108     -0.0878
    118  N         23.1350   -3.7810   57.7730 N.3   112  GLN112     -0.1245
    119  CA        23.2270   -3.2890   56.3840 C.3   112  GLN112      0.1566
    120  C         22.0210   -3.7600   55.5910 C.2   112  GLN112      0.2260
    121  O         21.4580   -3.0110   54.7670 O.2   112  GLN112     -0.2867
    122  CB        24.4580   -3.8380   55.6560 C.3   112  GLN112      0.0367
    123  CG        25.7870   -3.2240   56.0740 C.3   112  GLN112      0.0905
    124  CD        26.8910   -3.6010   55.1030 C.2   112  GLN112      0.2608
    125  OE1       26.6660   -3.6570   53.8930 O.2   112  GLN112     -0.2717
    126  NE2       28.0980   -3.8420   55.6270 N.am  112  GLN112     -0.0878
    127  N         25.3860   -0.4800   45.3360 N.3   133  HIS133     -0.1241
    128  CA        26.7840   -0.7540   45.6660 C.3   133  HIS133      0.1621
    129  C         26.7890   -2.1950   46.1590 C.2   133  HIS133      0.2264
    130  O         25.9220   -2.6000   46.9490 O.2   133  HIS133     -0.2867
    131  CB        27.2310    0.1570   46.8170 C.3   133  HIS133      0.0745
    132  CG        28.6440   -0.0720   47.2810 C.ar  133  HIS133      0.0817
    133  ND1       29.7220    0.6000   46.7560 N.ar  133  HIS133     -0.2268
    134  CD2       29.1380   -0.8540   48.2680 C.ar  133  HIS133      0.1154
    135  CE1       30.8240    0.2550   47.4010 C.ar  133  HIS133      0.1986
    136  NE2       30.4950   -0.6330   48.3240 N.ar  133  HIS133     -0.2212
    137  N         29.8470   -5.1300   47.2470 N.3   135  ARG135     -0.1245
    138  CA        31.2420   -5.5130   47.2800 C.3   135  ARG135      0.1563
    139  C         31.2960   -6.8030   48.0980 C.2   135  ARG135      0.2260
    140  O         31.1290   -6.7830   49.3390 O.2   135  ARG135     -0.2867
    141  CB        32.0360   -4.3960   47.9360 C.3   135  ARG135      0.0307
    142  CG        33.4900   -4.7510   48.1630 C.3   135  ARG135      0.0489
    143  CD        34.0260   -3.8380   49.2360 C.3   135  ARG135      0.2205
    144  NE        35.2620   -3.1950   48.8440 N.pl3 135  ARG135     -0.0865
    145  CZ        35.6450   -2.0230   49.3220 C.cat 135  ARG135      0.5346
    146  NH1       34.8730   -1.3870   50.2040 N.pl3 135  ARG135      0.1354
    147  NH2       36.7870   -1.4940   48.9120 N.pl3 135  ARG135      0.1354
    148  N         32.7030    6.1270   39.1110 N.3   207  ASP207     -0.1239
    149  CA        32.7110    6.0750   40.5740 C.3   207  ASP207      0.1674
    150  C         33.7820    7.0810   41.0520 C.2   207  ASP207      0.2266
    151  O         34.3270    6.9550   42.1490 O.2   207  ASP207     -0.2867
    152  CB        33.0070    4.6740   41.1690 C.3   207  ASP207      0.1410
    153  CG        32.6620    4.5930   42.6770 C.2   207  ASP207      0.3668
    154  OD1       31.8900    5.4370   43.1720 O.co2 207  ASP207     -0.2456
    155  OD2       33.1350    3.6850   43.3840 O.co2 207  ASP207     -0.2456
    156  N         35.6130   10.1140   42.8140 N.3   209  PRO209     -0.2102
    157  CA        37.0630    9.9850   42.6960 C.3   209  PRO209      0.1504
    158  C         37.6610    8.6150   42.9840 C.2   209  PRO209      0.2575
    159  O         38.8740    8.4560   42.9220 O.2   209  PRO209     -0.2718
    160  CB        37.5560   11.0600   43.6710 C.3   209  PRO209      0.0282
    161  CG        36.6250   10.8680   44.7900 C.3   209  PRO209      0.0208
    162  CD        35.2610   10.7490   44.0940 C.3   209  PRO209      0.0893
    163  N         36.8440    7.6240   43.3130 N.am  210  ASP210     -0.1974
    164  CA        37.4300    6.2960   43.5810 C.3   210  ASP210      0.1708
    165  C         37.5820    5.4860   42.2860 C.2   210  ASP210      0.2293
    166  O         37.2830    6.0000   41.2000 O.2   210  ASP210     -0.2864
    167  CB        36.5640    5.5330   44.5920 C.3   210  ASP210      0.1436
    168  CG        36.4310    6.2720   45.9270 C.2   210  ASP210      0.3671
    169  OD1       37.3510    7.0460   46.2950 O.co2 210  ASP210     -0.2456
    170  OD2       35.4140    6.0640   46.6290 O.co2 210  ASP210     -0.2456
@<TRIPOS>BOND
     1   148   149    1
     2   149   150    1
     3   149   152    1
     4   150   151    2
     5   152   153    1
     6   166   165    2
     7   165   164    1
     8     1     2    1
     9   153   154   ar
    10   153   155   ar
    11   157   156    1
    12   157   158    1
    13   157   160    1
    14   156   162    1
    15   159   158    2
    16   158   163   am
    17   163   164    1
    18     3     2    1
    19     3     4    2
    20   164   167    1
    21   160   161    1
    22     2     5    1
    23   162   161    1
    24   167   168    1
    25     8    10   ar
    26     8     6   ar
    27     5     6    1
    28    10     9   ar
    29     6     7   ar
    30    14    13    2
    31   127   128    1
    32   128   129    1
    33   128   131    1
    34     9     7   ar
    35   168   169   ar
    36   168   170   ar
    37   129   130    2
    38    11    12    1
    39    13    12    1
    40   133   132   ar
    41   133   135   ar
    42   131   132    1
    43    12    15    1
    44   137   138    1
    45   138   141    1
    46   138   139    1
    47   132   134   ar
    48    15    16    1
    49   135   136   ar
    50   141   142    1
    51    17    16   ar
    52    17    19   ar
    53   139   140    2
    54   142   143    1
    55   134   136   ar
    56    16    18   ar
    57    38    36   ar
    58    38    37   ar
    59   144   143    1
    60   144   145    2
    61   147   145    1
    62    36    34   ar
    63    19    21   ar
    64   145   146    1
    65    28    26    1
    66    18    20   ar
    67    22    23    1
    68    37    35   ar
    69    34    35   ar
    70    34    33    1
    71    21    20   ar
    72    82    80   ar
    73    23    26    1
    74    23    24    1
    75    26    27    1
    76    33    30    1
    77    45    44    1
    78    45    39    1
    79    80    79    1
    80    80    81   ar
    81    44    43    1
    82    76    79    1
    83    76    75    1
    84    76    77    1
    85    30    29    1
    86    30    31    1
    87    24    25    2
    88    89    91   ar
    89    89    88   ar
    90    39    31   am
    91    39    40    1
    92    57    56    1
    93    91    93   ar
    94    77    78    2
    95    31    32    2
    96    43    40    1
    97    87    88    1
    98    87    84    1
    99    88    90   ar
   100    56    55    1
   101    46    47    1
   102    46    41   am
   103    93    92   ar
   104    83    84    1
   105    40    41    1
   106    84    85    1
   107    47    48    1
   108    90    92   ar
   109   125   124    2
   110    41    42    2
   111    55    54    1
   112   121   120    2
   113    48    50   am
   114    48    49    2
   115    50    51    1
   116   124   126   am
   117   124   123    1
   118    85    86    2
   119    54    51    1
   120   120   119    1
   121   122   123    1
   122   122   119    1
   123    51    52    1
   124   119   118    1
   125    52    58   am
   126    52    53    2
   127    58    59    1
   128   106   107    1
   129   106   103    1
   130   107   108    1
   131    59    62    1
   132    59    60    1
   133    62    63    1
   134    64    63    1
   135   105   104    2
   136   103   104    1
   137   103   102    1
   138   108   102    1
   139   104   109   am
   140    63    65    1
   141   112   111    2
   142    60    66   am
   143    60    61    2
   144   102    96   am
   145   111   110    1
   146    66    67    1
   147   109   110    1
   148    96    97    2
   149    96    95    1
   150   110   113    1
   151    94    95    1
   152   113   114    1
   153    67    68    1
   154    67    70    1
   155    95    98    1
   156    68    69    2
   157    70    71    1
   158    71    72    1
   159    73    72   ar
   160   114   115    1
   161    72    74   ar
   162   100    99   ar
   163    98    99    1
   164   115   117   am
   165   115   116    2
   166    99   101   ar
