@<TRIPOS>MOLECULE
tmp/1zzrB04.pdb
 77 74 0 0 0
SMALL
GASTEIGER

@<TRIPOS>ATOM
      1  N          6.5900    2.2500   53.7380 N.3   109  VAL109     -0.1231
      2  CA         5.6570    1.3000   53.1480 C.3   109  VAL109      0.1692
      3  C          4.8370    0.5520   54.2070 C.2   109  VAL109      0.2592
      4  O          3.9180   -0.1830   53.8720 O.2   109  VAL109     -0.2718
      5  CB         6.4220    0.2740   52.2850 C.3   109  VAL109      0.0266
      6  CG1        7.1200   -0.7680   53.1940 C.3   109  VAL109      0.0020
      7  CG2        5.4700   -0.3820   51.2690 C.3   109  VAL109      0.0020
      8  N          5.1850    0.7350   55.4750 N.am  110  GLY110     -0.1957
      9  CA         4.4780    0.0370   56.5430 C.3   110  GLY110      0.1869
     10  C          3.3710    0.8260   57.2250 C.2   110  GLY110      0.2309
     11  O          2.8370    0.4140   58.2520 O.2   110  GLY110     -0.2863
     12  N          0.2920    1.0360   57.0520 N.3   112  ILE112     -0.1231
     13  CA        -1.0220    0.4810   57.3310 C.3   112  ILE112      0.1692
     14  C         -1.1560    0.2210   58.8260 C.2   112  ILE112      0.2591
     15  O         -2.2630    0.1210   59.3470 O.2   112  ILE112     -0.2718
     16  CB        -1.2840   -0.8420   56.5690 C.3   112  ILE112      0.0266
     17  CG1       -2.7970   -1.1070   56.5180 C.3   112  ILE112      0.0019
     18  CG2       -0.6180   -2.0200   57.3000 C.3   112  ILE112      0.0020
     19  CD1       -3.1410   -2.4460   55.8850 C.3   112  ILE112      0.0001
     20  N         -0.0210    0.1210   59.5100 N.am  113  GLN113     -0.1979
     21  CA         0.0280   -0.1180   60.9540 C.3   113  GLN113      0.1601
     22  C          0.0440    1.1730   61.7750 C.2   113  GLN113      0.2287
     23  O          0.1190    1.1040   62.9950 O.2   113  GLN113     -0.2864
     24  CB         1.3280   -0.8600   61.3210 C.3   113  GLN113      0.0394
     25  CG         1.5780   -2.2080   60.6620 C.3   113  GLN113      0.0908
     26  CD         0.6160   -3.2840   61.1470 C.2   113  GLN113      0.2608
     27  OE1        0.2520   -3.3170   62.3260 O.2   113  GLN113     -0.2717
     28  NE2        0.2190   -4.1770   60.2480 N.am  113  GLN113     -0.0878
     29  N          9.1660   -3.3290   62.4470 N.3   280  TRP280     -0.1241
     30  CA         9.7560   -4.6260   62.1270 C.3   280  TRP280      0.1605
     31  C         10.3070   -4.5770   60.6840 C.2   280  TRP280      0.2264
     32  O          9.9180   -3.7280   59.8960 O.2   280  TRP280     -0.2867
     33  CB         8.7450   -5.7780   62.3300 C.3   280  TRP280      0.0550
     34  CG         7.4180   -5.6380   61.6510 C.ar  280  TRP280      0.0003
     35  CD1        7.1440   -5.8360   60.3230 C.ar  280  TRP280      0.0946
     36  CD2        6.1740   -5.3120   62.2680 C.ar  280  TRP280      0.0152
     37  NE1        5.8020   -5.6580   60.0790 N.ar  280  TRP280     -0.2442
     38  CE2        5.1820   -5.3370   61.2600 C.ar  280  TRP280      0.0810
     39  CE3        5.7930   -5.0000   63.5820 C.ar  280  TRP280      0.0012
     40  CZ2        3.8310   -5.0660   61.5270 C.ar  280  TRP280      0.0191
     41  CZ3        4.4450   -4.7290   63.8470 C.ar  280  TRP280      0.0001
     42  CH2        3.4860   -4.7660   62.8280 C.ar  280  TRP280      0.0015
     43  N          8.3500   -9.1800   57.2990 N.3   342  VAL342     -0.1245
     44  CA         7.3930   -9.2210   56.2050 C.3   342  VAL342      0.1561
     45  C          8.1330   -9.2170   54.8860 C.2   342  VAL342      0.2260
     46  O          9.1650   -8.5460   54.7570 O.2   342  VAL342     -0.2867
     47  CB         6.3700   -8.0170   56.2540 C.3   342  VAL342      0.0252
     48  CG1        7.0600   -6.6660   55.9320 C.3   342  VAL342      0.0019
     49  CG2        5.2460   -8.2680   55.2610 C.3   342  VAL342      0.0019
     50  N          4.0120   -9.0630   50.3440 N.3   346  SER346     -0.1202
     51  CA         3.0120   -8.8440   51.3610 C.3   346  SER346      0.2020
     52  C          2.9700   -7.3710   51.7760 C.2   346  SER346      0.2618
     53  O          1.8980   -6.7800   51.8220 O.2   346  SER346     -0.2717
     54  CB         3.2880   -9.7470   52.5600 C.3   346  SER346      0.2103
     55  OG         2.3980   -9.4450   53.6110 O.3   346  SER346     -0.2182
     56  N          4.1270   -6.7620   52.0290 N.am  347  ALA347     -0.1979
     57  CA         4.1580   -5.3510   52.4550 C.3   347  ALA347      0.1597
     58  C          3.6330   -4.3750   51.4110 C.2   347  ALA347      0.2287
     59  O          2.8910   -3.4330   51.7380 O.2   347  ALA347     -0.2864
     60  CB         5.5710   -4.9450   52.8650 C.3   347  ALA347      0.0319
     61  N         -0.1730   -4.7360   51.0820 N.3   350  SER350     -0.1202
     62  CA        -0.8480   -4.0790   52.1940 C.3   350  SER350      0.2020
     63  C         -0.8200   -2.5580   52.0010 C.2   350  SER350      0.2618
     64  O         -1.8470   -1.8870   52.1900 O.2   350  SER350     -0.2717
     65  CB        -0.1940   -4.4380   53.5220 C.3   350  SER350      0.2103
     66  OG        -0.5140   -5.7610   53.9120 O.3   350  SER350     -0.2182
     67  N          0.3320   -2.0170   51.5880 N.am  351  PHE351     -0.1975
     68  CA         0.4460   -0.5720   51.3770 C.3   351  PHE351      0.1639
     69  C         -0.5650   -0.0570   50.3480 C.2   351  PHE351      0.2290
     70  O         -1.1390    1.0280   50.5210 O.2   351  PHE351     -0.2864
     71  CB         1.8800   -0.1740   50.9440 C.3   351  PHE351      0.0560
     72  CG         2.0460    1.3190   50.7230 C.ar  351  PHE351     -0.0200
     73  CD1        2.1470    2.1900   51.8090 C.ar  351  PHE351     -0.0042
     74  CD2        1.9860    1.8570   49.4450 C.ar  351  PHE351     -0.0042
     75  CE1        2.1750    3.5650   51.6290 C.ar  351  PHE351     -0.0003
     76  CE2        2.0120    3.2430   49.2480 C.ar  351  PHE351     -0.0003
     77  CZ         2.1030    4.0990   50.3400 C.ar  351  PHE351     -0.0000
@<TRIPOS>BOND
     1    76    74   ar
     2    76    77   ar
     3    74    72   ar
     4    77    75   ar
     5    50    51    1
     6    69    70    2
     7    69    68    1
     8    72    71    1
     9    72    73   ar
    10    71    68    1
    11    61    62    1
    12     7     5    1
    13    51    52    1
    14    51    54    1
    15    68    67    1
    16    58    59    2
    17    58    57    1
    18    67    63   am
    19    75    73   ar
    20    52    53    2
    21    52    56   am
    22    63    64    2
    23    63    62    1
    24    56    57    1
    25    62    65    1
    26     5     2    1
    27     5     6    1
    28    57    60    1
    29    54    55    1
    30     2     1    1
    31     2     3    1
    32    65    66    1
    33     4     3    2
    34     3     8   am
    35    46    45    2
    36    45    44    1
    37    49    47    1
    38     8     9    1
    39    19    17    1
    40    48    47    1
    41    44    47    1
    42    44    43    1
    43    17    16    1
    44     9    10    1
    45    16    18    1
    46    16    13    1
    47    12    13    1
    48    10    11    2
    49    13    14    1
    50    14    15    2
    51    14    20   am
    52    20    21    1
    53    32    31    2
    54    37    35   ar
    55    37    38   ar
    56    28    26   am
    57    35    34   ar
    58    25    26    1
    59    25    24    1
    60    31    30    1
    61    21    24    1
    62    21    22    1
    63    26    27    2
    64    38    40   ar
    65    38    36   ar
    66    40    42   ar
    67    34    36   ar
    68    34    33    1
    69    22    23    2
    70    30    33    1
    71    30    29    1
    72    36    39   ar
    73    42    41   ar
    74    39    41   ar
