@<TRIPOS>MOLECULE
tmp/1zzrB03.pdb
 187 183 0 0 0
SMALL
GASTEIGER

@<TRIPOS>ATOM
      1  N         18.2250   12.1700   47.8240 N.3    38  VAL38      -0.1231
      2  CA        18.0220   11.6450   49.1770 C.3    38  VAL38       0.1692
      3  C         17.6720   12.7490   50.2050 C.2    38  VAL38       0.2591
      4  O         16.6990   12.6100   50.9670 O.2    38  VAL38      -0.2718
      5  CB        19.2750   10.8400   49.6560 C.3    38  VAL38       0.0266
      6  CG1       19.0900   10.3720   51.1020 C.3    38  VAL38       0.0020
      7  CG2       19.4930    9.6270   48.7480 C.3    38  VAL38       0.0020
      8  N         18.4510   13.8350   50.2140 N.am   39  LEU39      -0.1980
      9  CA        18.2380   14.9810   51.1270 C.3    39  LEU39       0.1596
     10  C         18.1300   16.2600   50.2730 C.2    39  LEU39       0.2287
     11  O         19.1150   16.9740   50.1120 O.2    39  LEU39      -0.2864
     12  CB        19.4440   15.1270   52.0600 C.3    39  LEU39       0.0297
     13  CG        20.0600   13.8560   52.6510 C.3    39  LEU39       0.0022
     14  CD1       21.4250   14.1420   53.2410 C.3    39  LEU39       0.0001
     15  CD2       19.1480   13.3010   53.7190 C.3    39  LEU39       0.0001
     16  N         22.5560    6.0030   64.8340 N.3   170  SER170     -0.1202
     17  CA        21.5660    6.2340   63.7820 C.3   170  SER170      0.2020
     18  C         20.3670    5.2610   63.9570 C.2   170  SER170      0.2618
     19  O         19.2610    5.5430   63.5140 O.2   170  SER170     -0.2717
     20  CB        22.2220    6.1120   62.3980 C.3   170  SER170      0.2103
     21  OG        22.7200    4.8120   62.1590 O.3   170  SER170     -0.2182
     22  N         20.6130    4.1360   64.6270 N.am  171  GLN171     -0.1979
     23  CA        19.5970    3.1420   64.9740 C.3   171  GLN171      0.1601
     24  C         20.0340    2.5790   66.3310 C.2   171  GLN171      0.2287
     25  O         21.2250    2.3640   66.5650 O.2   171  GLN171     -0.2864
     26  CB        19.5250    1.9950   63.9640 C.3   171  GLN171      0.0394
     27  CG        18.7540    2.2820   62.6910 C.3   171  GLN171      0.0908
     28  CD        18.8580    1.1590   61.6750 C.2   171  GLN171      0.2608
     29  OE1       18.6230   -0.0140   61.9820 O.2   171  GLN171     -0.2717
     30  NE2       19.2100    1.5160   60.4530 N.am  171  GLN171     -0.0878
     31  N         22.8770   -1.6160   65.9630 N.3   174  ARG174     -0.1245
     32  CA        23.6370   -1.6800   64.7260 C.3   174  ARG174      0.1563
     33  C         25.0240   -2.3150   64.9370 C.2   174  ARG174      0.2260
     34  O         25.5960   -2.2330   66.0290 O.2   174  ARG174     -0.2867
     35  CB        23.8060   -0.2740   64.1270 C.3   174  ARG174      0.0307
     36  CG        22.7620    0.0510   63.0760 C.3   174  ARG174      0.0489
     37  CD        23.2690    1.1080   62.1240 C.3   174  ARG174      0.2205
     38  NE        22.9180    0.8040   60.7450 N.pl3 174  ARG174     -0.0865
     39  CZ        23.1170    1.6310   59.7290 C.cat 174  ARG174      0.5346
     40  NH1       23.6620    2.8260   59.9330 N.pl3 174  ARG174      0.1354
     41  NH2       22.7750    1.2650   58.5050 N.pl3 174  ARG174      0.1354
     42  N         20.1780   -8.4100   63.5600 N.3   255  TYR255     -0.1241
     43  CA        19.3120   -8.1230   64.7080 C.3   255  TYR255      0.1605
     44  C         17.8600   -8.0810   64.2260 C.2   255  TYR255      0.2264
     45  O         17.6030   -7.8420   63.0510 O.2   255  TYR255     -0.2867
     46  CB        19.7050   -6.7950   65.3330 C.3   255  TYR255      0.0534
     47  CG        19.9630   -5.6950   64.3160 C.ar  255  TYR255     -0.0201
     48  CD1       18.9540   -4.8070   63.9540 C.ar  255  TYR255     -0.0009
     49  CD2       21.2360   -5.5000   63.7730 C.ar  255  TYR255     -0.0009
     50  CE1       19.1980   -3.7470   63.0910 C.ar  255  TYR255      0.0417
     51  CE2       21.4890   -4.4410   62.9010 C.ar  255  TYR255      0.0417
     52  CZ        20.4640   -3.5650   62.5670 C.ar  255  TYR255      0.1957
     53  OH        20.7020   -2.4980   61.7210 O.3   255  TYR255     -0.2866
     54  N         14.5210   -3.0960   63.9620 N.3   258  PRO258     -0.2116
     55  CA        15.0690   -1.9370   63.2630 C.3   258  PRO258      0.1372
     56  C         14.5900   -0.7140   64.0400 C.2   258  PRO258      0.2244
     57  O         13.3960   -0.5660   64.2760 O.2   258  PRO258     -0.2868
     58  CB        14.4510   -2.0580   61.8800 C.3   258  PRO258      0.0268
     59  CG        13.0580   -2.5800   62.1740 C.3   258  PRO258      0.0207
     60  CD        13.2990   -3.6020   63.2990 C.3   258  PRO258      0.0892
     61  N         15.2360    3.3510   63.9610 N.3   260  VAL260     -0.1245
     62  CA        15.7730    4.6520   63.5920 C.3   260  VAL260      0.1561
     63  C         15.7710    5.5310   64.8230 C.2   260  VAL260      0.2260
     64  O         14.7540    5.6550   65.4880 O.2   260  VAL260     -0.2867
     65  CB        14.9040    5.3100   62.5060 C.3   260  VAL260      0.0252
     66  CG1       15.2750    6.7850   62.3560 C.3   260  VAL260      0.0019
     67  CG2       15.0910    4.5770   61.1890 C.3   260  VAL260      0.0019
     68  N         17.8260    8.7420   64.8140 N.3   262  ASN262     -0.1240
     69  CA        18.4640   10.0200   64.5060 C.3   262  ASN262      0.1653
     70  C         17.5650   11.0120   63.7910 C.2   262  ASN262      0.2266
     71  O         18.0470   11.9980   63.2340 O.2   262  ASN262     -0.2867
     72  CB        19.7390    9.7950   63.6740 C.3   262  ASN262      0.1155
     73  CG        19.4630    9.0790   62.3580 C.2   262  ASN262      0.2627
     74  OD1       18.3200    8.7500   62.0300 O.2   262  ASN262     -0.2716
     75  ND2       20.5220    8.8360   61.5890 N.am  262  ASN262     -0.0877
     76  N         12.2260    5.2910   67.1990 N.3   277  PHE277     -0.1227
     77  CA        11.0170    4.5330   66.8970 C.3   277  PHE277      0.1736
     78  C         11.3650    3.1940   66.2420 C.2   277  PHE277      0.2596
     79  O         12.4240    3.0440   65.6460 O.2   277  PHE277     -0.2718
     80  CB        10.0810    5.3540   65.9940 C.3   277  PHE277      0.0547
     81  CG        10.6840    5.7560   64.6590 C.ar  277  PHE277     -0.0202
     82  CD1       10.8010    4.8300   63.6190 C.ar  277  PHE277     -0.0042
     83  CD2       11.0710    7.0770   64.4240 C.ar  277  PHE277     -0.0042
     84  CE1       11.2830    5.2000   62.3650 C.ar  277  PHE277     -0.0003
     85  CE2       11.5590    7.4640   63.1640 C.ar  277  PHE277     -0.0003
     86  CZ        11.6620    6.5130   62.1270 C.ar  277  PHE277     -0.0000
     87  N         10.4970    2.2070   66.3870 N.am  278  SER278     -0.1938
     88  CA        10.7630    0.9170   65.7690 C.3   278  SER278      0.2055
     89  C          9.4900    0.1930   65.3740 C.2   278  SER278      0.2644
     90  O          8.4360    0.4000   65.9710 O.2   278  SER278     -0.2714
     91  CB        11.6020    0.0190   66.6980 C.3   278  SER278      0.2130
     92  OG        10.9210   -0.2860   67.8990 O.3   278  SER278     -0.2179
     93  N          9.6110   -0.6320   64.3360 N.am  279  GLY279     -0.1939
     94  CA         8.5100   -1.4450   63.8450 C.3   279  GLY279      0.2014
     95  C          9.0880   -2.8500   63.6850 C.2   279  GLY279      0.2639
     96  O          9.4580   -3.4830   64.6760 O.2   279  GLY279     -0.2714
     97  N          9.1660   -3.3290   62.4470 N.am  280  TRP280     -0.1959
     98  CA         9.7560   -4.6260   62.1270 C.3   280  TRP280      0.1771
     99  C         10.3070   -4.5770   60.6840 C.2   280  TRP280      0.2619
    100  O          9.9180   -3.7280   59.8960 O.2   280  TRP280     -0.2715
    101  CB         8.7450   -5.7780   62.3300 C.3   280  TRP280      0.0590
    102  CG         7.4180   -5.6380   61.6510 C.ar  280  TRP280      0.0006
    103  CD1        7.1440   -5.8360   60.3230 C.ar  280  TRP280      0.0946
    104  CD2        6.1740   -5.3120   62.2680 C.ar  280  TRP280      0.0152
    105  NE1        5.8020   -5.6580   60.0790 N.ar  280  TRP280     -0.2442
    106  CE2        5.1820   -5.3370   61.2600 C.ar  280  TRP280      0.0810
    107  CE3        5.7930   -5.0000   63.5820 C.ar  280  TRP280      0.0012
    108  CZ2        3.8310   -5.0660   61.5270 C.ar  280  TRP280      0.0191
    109  CZ3        4.4450   -4.7290   63.8470 C.ar  280  TRP280      0.0001
    110  CH2        3.4860   -4.7660   62.8280 C.ar  280  TRP280      0.0015
    111  N         11.2220   -5.4780   60.3410 N.am  281  TYR281     -0.1974
    112  CA        11.8360   -5.4660   59.0100 C.3   281  TYR281      0.1639
    113  C         11.0390   -6.0060   57.8420 C.2   281  TYR281      0.2290
    114  O         10.2310   -6.9230   57.9880 O.2   281  TYR281     -0.2864
    115  CB        13.1330   -6.2670   59.0220 C.3   281  TYR281      0.0560
    116  CG        14.3540   -5.5310   59.4780 C.ar  281  TYR281     -0.0198
    117  CD1       14.9830   -5.8610   60.6720 C.ar  281  TYR281     -0.0009
    118  CD2       14.9280   -4.5470   58.6750 C.ar  281  TYR281     -0.0009
    119  CE1       16.1650   -5.2320   61.0510 C.ar  281  TYR281      0.0417
    120  CE2       16.0840   -3.9190   59.0350 C.ar  281  TYR281      0.0417
    121  CZ        16.7060   -4.2680   60.2210 C.ar  281  TYR281      0.1957
    122  OH        17.8760   -3.6670   60.5440 O.3   281  TYR281     -0.2866
    123  N         15.2230   -5.2260   53.1620 N.3   285  GLU285     -0.1245
    124  CA        16.1040   -4.2680   53.8130 C.3   285  GLU285      0.1567
    125  C         17.3980   -5.0000   54.2150 C.2   285  GLU285      0.2260
    126  O         18.4930   -4.4430   54.0990 O.2   285  GLU285     -0.2867
    127  CB        15.4520   -3.6650   55.0600 C.3   285  GLU285      0.0388
    128  CG        14.0860   -3.0030   54.8440 C.3   285  GLU285      0.1160
    129  CD        13.5550   -2.3930   56.1330 C.2   285  GLU285      0.3649
    130  OE1       14.2450   -1.5030   56.6650 O.co2 285  GLU285     -0.2457
    131  OE2       12.4660   -2.7990   56.6130 O.co2 285  GLU285     -0.2457
    132  N         19.6610   -4.7590   50.5740 N.3   289  ARG289     -0.1231
    133  CA        20.5270   -3.6430   50.9470 C.3   289  ARG289      0.1694
    134  C         21.6560   -3.9250   51.9630 C.2   289  ARG289      0.2592
    135  O         22.8340   -3.6910   51.6730 O.2   289  ARG289     -0.2718
    136  CB        19.6650   -2.4550   51.4550 C.3   289  ARG289      0.0321
    137  CG        18.4330   -2.0820   50.5820 C.3   289  ARG289      0.0489
    138  CD        18.8000   -1.5790   49.1770 C.3   289  ARG289      0.2205
    139  NE        19.9080   -0.6240   49.2090 N.pl3 289  ARG289     -0.0865
    140  CZ        19.7890    0.6480   49.5700 C.cat 289  ARG289      0.5346
    141  NH1       18.5990    1.1260   49.9180 N.pl3 289  ARG289      0.1354
    142  NH2       20.8610    1.4330   49.6160 N.pl3 289  ARG289      0.1354
    143  N         21.3190   -4.3910   53.1570 N.am  290  ASN290     -0.1974
    144  CA        22.3630   -4.6320   54.1540 C.3   290  ASN290      0.1688
    145  C         23.3840   -5.7100   53.7240 C.2   290  ASN290      0.2292
    146  O         24.5880   -5.5480   53.9250 O.2   290  ASN290     -0.2864
    147  CB        21.7280   -4.9680   55.5180 C.3   290  ASN290      0.1181
    148  CG        20.8540   -3.8180   56.0550 C.2   290  ASN290      0.2629
    149  OD1       20.9020   -2.6970   55.5510 O.2   290  ASN290     -0.2716
    150  ND2       20.0660   -4.0980   57.0870 N.am  290  ASN290     -0.0877
    151  N         27.9970   -2.2800   51.6420 N.3   296  ARG296     -0.1245
    152  CA        27.6450   -2.8890   52.9270 C.3   296  ARG296      0.1563
    153  C         28.3880   -4.2170   53.1170 C.2   296  ARG296      0.2260
    154  O         29.6060   -4.2430   52.9750 O.2   296  ARG296     -0.2867
    155  CB        26.1190   -3.0650   53.0160 C.3   296  ARG296      0.0307
    156  CG        25.3420   -1.7220   52.8950 C.3   296  ARG296      0.0489
    157  CD        25.6470   -0.7430   54.0450 C.3   296  ARG296      0.2205
    158  NE        25.2390   -1.2730   55.3550 N.pl3 296  ARG296     -0.0865
    159  CZ        23.9760   -1.4180   55.7480 C.cat 296  ARG296      0.5346
    160  NH1       22.9750   -1.0720   54.9390 N.pl3 296  ARG296      0.1354
    161  NH2       23.7050   -1.8980   56.9520 N.pl3 296  ARG296      0.1354
    162  N         11.1740    5.4590   47.0580 N.3   371  TRP371     -0.1241
    163  CA        11.4480    4.7050   48.2670 C.3   371  TRP371      0.1605
    164  C         10.4570    3.5660   48.5100 C.2   371  TRP371      0.2264
    165  O         10.8490    2.5350   49.0310 O.2   371  TRP371     -0.2867
    166  CB        11.4780    5.6360   49.4970 C.3   371  TRP371      0.0550
    167  CG        12.7930    6.3270   49.7110 C.ar  371  TRP371      0.0003
    168  CD1       13.4450    7.1660   48.8320 C.ar  371  TRP371      0.0946
    169  CD2       13.6640    6.1690   50.8380 C.ar  371  TRP371      0.0152
    170  NE1       14.6650    7.5170   49.3460 N.ar  371  TRP371     -0.2442
    171  CE2       14.8310    6.9220   50.5720 C.ar  371  TRP371      0.0810
    172  CE3       13.5730    5.4690   52.0480 C.ar  371  TRP371      0.0012
    173  CZ2       15.9050    6.9870   51.4710 C.ar  371  TRP371      0.0191
    174  CZ3       14.6460    5.5380   52.9490 C.ar  371  TRP371      0.0001
    175  CH2       15.7960    6.2930   52.6510 C.ar  371  TRP371      0.0015
    176  N         14.9750   14.7120   58.7240 N.3   399  TYR399     -0.1241
    177  CA        16.3680   14.3790   58.9210 C.3   399  TYR399      0.1605
    178  C         16.9760   15.5240   59.6980 C.2   399  TYR399      0.2264
    179  O         16.4460   16.6390   59.7080 O.2   399  TYR399     -0.2867
    180  CB        17.0890   14.2610   57.5870 C.3   399  TYR399      0.0534
    181  CG        16.6790   13.0620   56.7850 C.ar  399  TYR399     -0.0201
    182  CD1       16.4220   13.1840   55.4240 C.ar  399  TYR399     -0.0009
    183  CD2       16.5880   11.7920   57.3700 C.ar  399  TYR399     -0.0009
    184  CE1       16.0910   12.0850   54.6510 C.ar  399  TYR399      0.0417
    185  CE2       16.2540   10.6740   56.6040 C.ar  399  TYR399      0.0417
    186  CZ        16.0110   10.8310   55.2360 C.ar  399  TYR399      0.1957
    187  OH        15.7200    9.7510   54.4230 O.3   399  TYR399     -0.2866
@<TRIPOS>BOND
     1   162   163    1
     2     1     2    1
     3   163   164    1
     4   163   166    1
     5   164   165    2
     6     7     5    1
     7   168   170   ar
     8   168   167   ar
     9   138   139    1
    10   138   137    1
    11     2     5    1
    12     2     3    1
    13   139   140    2
    14   170   171   ar
    15   166   167    1
    16   140   142    1
    17   140   141    1
    18     5     6    1
    19   167   169   ar
    20    11    10    2
    21     3     8   am
    22     3     4    2
    23     8     9    1
    24    10     9    1
    25   171   169   ar
    26   171   173   ar
    27   132   133    1
    28   137   136    1
    29   169   172   ar
    30   133   136    1
    31   133   134    1
    32     9    12    1
    33   173   175   ar
    34   151   152    1
    35   135   134    2
    36   134   143   am
    37   172   174   ar
    38    12    13    1
    39   175   174   ar
    40    13    14    1
    41    13    15    1
    42   156   155    1
    43   156   157    1
    44   152   155    1
    45   152   153    1
    46   154   153    2
    47   143   144    1
    48   123   124    1
    49   145   146    2
    50   145   144    1
    51   124   125    1
    52   124   127    1
    53   157   158    1
    54   126   125    2
    55   144   147    1
    56   187   186    1
    57   184   186   ar
    58   184   182   ar
    59   128   127    1
    60   128   129    1
    61   160   159    1
    62   186   185   ar
    63   158   159    2
    64   182   181   ar
    65   147   148    1
    66   149   148    2
    67   159   161    1
    68   148   150   am
    69   129   131   ar
    70   129   130   ar
    71   185   183   ar
    72   181   183   ar
    73   181   180    1
    74   180   177    1
    75   113   114    2
    76   113   112    1
    77    41    39    1
    78   118   120   ar
    79   118   116   ar
    80   176   177    1
    81   177   178    1
    82   112   115    1
    83   112   111    1
    84   115   116    1
    85   120   121   ar
    86   116   117   ar
    87   178   179    2
    88    39    40    1
    89    39    38    2
    90   100    99    2
    91   105   103   ar
    92   105   106   ar
    93   121   122    1
    94   121   119   ar
    95   103   102   ar
    96   111    99   am
    97    30    28   am
    98   117   119   ar
    99    99    98    1
   100    38    37    1
   101    67    65    1
   102   106   108   ar
   103   106   104   ar
   104   108   110   ar
   105    75    73   am
   106   102   104   ar
   107   102   101    1
   108    28    29    2
   109    28    27    1
   110    53    52    1
   111    58    59    1
   112    58    55    1
   113    74    73    2
   114    37    36    1
   115    86    84   ar
   116    86    85   ar
   117    98   101    1
   118    98    97    1
   119    21    20    1
   120    59    60    1
   121   104   107   ar
   122    66    65    1
   123    73    72    1
   124    84    82   ar
   125    20    17    1
   126    97    95   am
   127    65    62    1
   128    52    51   ar
   129    52    50   ar
   130    27    26    1
   131   110   109   ar
   132    51    49   ar
   133    45    44    2
   134    36    35    1
   135    50    48   ar
   136    85    83   ar
   137    71    70    2
   138    55    54    1
   139    55    56    1
   140    60    54    1
   141    19    18    2
   142    42    43    1
   143   107   109   ar
   144    62    61    1
   145    62    63    1
   146    82    81   ar
   147    72    69    1
   148    95    94    1
   149    95    96    2
   150    49    47   ar
   151    17    18    1
   152    17    16    1
   153    70    69    1
   154    94    93    1
   155    48    47   ar
   156    18    22   am
   157    26    23    1
   158    56    57    2
   159    35    32    1
   160    44    43    1
   161    47    46    1
   162    93    89   am
   163    83    81   ar
   164    69    68    1
   165    22    23    1
   166    81    80    1
   167    43    46    1
   168    32    33    1
   169    32    31    1
   170    63    64    2
   171    33    34    2
   172    23    24    1
   173    89    88    1
   174    89    90    2
   175    79    78    2
   176    88    87    1
   177    88    91    1
   178    80    77    1
   179    78    87   am
   180    78    77    1
   181    24    25    2
   182    91    92    1
   183    77    76    1
