@<TRIPOS>MOLECULE
tmp/1zztB03.pdb
 181 178 0 0 0
SMALL
GASTEIGER

@<TRIPOS>ATOM
      1  N          5.8560   -1.9270   55.0500 N.3    38  MET38      -0.1230
      2  CA         5.3670   -1.4430   56.3320 C.3    38  MET38       0.1702
      3  C          5.9410   -2.1890   57.5450 C.2    38  MET38       0.2592
      4  O          6.2140   -1.5760   58.5740 O.2    38  MET38      -0.2718
      5  CB         3.8340   -1.4960   56.3510 C.3    38  MET38       0.0401
      6  CG         3.1900   -0.3620   57.1410 C.3    38  MET38       0.0596
      7  SD         1.4050   -0.2170   56.8680 S.3    38  MET38      -0.1393
      8  CE         1.3500   -0.1310   55.1740 C.3    38  MET38       0.0692
      9  N          6.1270   -3.5030   57.4150 N.am   39  LEU39      -0.1980
     10  CA         6.6490   -4.3280   58.5070 C.3    39  LEU39       0.1596
     11  C          7.8450   -5.1800   58.0870 C.2    39  LEU39       0.2287
     12  O          8.0270   -5.4850   56.9060 O.2    39  LEU39      -0.2864
     13  CB         5.5640   -5.2790   59.0270 C.3    39  LEU39       0.0297
     14  CG         4.2030   -4.7500   59.4830 C.3    39  LEU39       0.0022
     15  CD1        3.2680   -5.9240   59.7270 C.3    39  LEU39       0.0001
     16  CD2        4.3550   -3.9310   60.7420 C.3    39  LEU39       0.0001
     17  N         -4.5600   -2.3040   69.5750 N.3   171  SER171     -0.1202
     18  CA        -3.5120   -1.6520   68.8010 C.3   171  SER171      0.2020
     19  C         -3.3950   -0.1980   69.2550 C.2   171  SER171      0.2618
     20  O         -2.3560    0.4190   69.1080 O.2   171  SER171     -0.2717
     21  CB        -3.8160   -1.7540   67.2990 C.3   171  SER171      0.2103
     22  OG        -5.0200   -1.0730   67.0200 O.3   171  SER171     -0.2182
     23  N         -4.4730    0.3540   69.7960 N.am  172  GLN172     -0.1979
     24  CA        -4.4490    1.7100   70.3420 C.3   172  GLN172      0.1601
     25  C         -5.3260    1.6560   71.5720 C.2   172  GLN172      0.2287
     26  O         -6.2090    0.8010   71.6510 O.2   172  GLN172     -0.2864
     27  CB        -4.9980    2.7460   69.3640 C.3   172  GLN172      0.0394
     28  CG        -4.1010    3.0390   68.1690 C.3   172  GLN172      0.0908
     29  CD        -4.7090    4.0830   67.2080 C.2   172  GLN172      0.2608
     30  OE1       -5.2430    5.1120   67.6410 O.2   172  GLN172     -0.2717
     31  NE2       -4.6120    3.8190   65.9050 N.am  172  GLN172     -0.0878
     32  N         -9.9330    2.9510   70.1970 N.3   175  ARG175     -0.1245
     33  CA       -10.1900    2.5230   68.8170 C.3   175  ARG175      0.1563
     34  C        -11.6510    2.1380   68.6840 C.2   175  ARG175      0.2260
     35  O        -12.2760    1.6940   69.6580 O.2   175  ARG175     -0.2867
     36  CB        -9.3550    1.2950   68.4620 C.3   175  ARG175      0.0307
     37  CG        -7.8980    1.5850   68.3350 C.3   175  ARG175      0.0489
     38  CD        -7.6220    2.1760   66.9790 C.3   175  ARG175      0.2205
     39  NE        -7.3760    1.1270   66.0050 N.pl3 175  ARG175     -0.0865
     40  CZ        -7.0750    1.3620   64.7380 C.cat 175  ARG175      0.5346
     41  NH1       -6.8470    0.3560   63.9080 N.pl3 175  ARG175      0.1354
     42  NH2       -7.0080    2.6100   64.3040 N.pl3 175  ARG175      0.1354
     43  N         -4.6370    9.7950   70.1780 N.3   259  PRO259     -0.2102
     44  CA        -4.0620    8.6980   69.4090 C.3   259  PRO259      0.1504
     45  C         -3.1320    8.0440   70.4280 C.2   259  PRO259      0.2576
     46  O         -2.2690    8.7060   70.9740 O.2   259  PRO259     -0.2718
     47  CB        -3.3150    9.4180   68.2810 C.3   259  PRO259      0.0282
     48  CG        -2.8120   10.6540   68.9430 C.3   259  PRO259      0.0208
     49  CD        -3.9990   11.0810   69.8350 C.3   259  PRO259      0.0893
     50  N         -3.3180    6.7650   70.7140 N.am  260  ALA260     -0.1966
     51  CA        -2.4600    6.1280   71.7060 C.3   260  ALA260      0.1728
     52  C         -2.0700    4.7160   71.3460 C.2   260  ALA260      0.2616
     53  O         -2.6700    3.7650   71.8410 O.2   260  ALA260     -0.2715
     54  CB        -3.1370    6.1420   73.0720 C.3   260  ALA260      0.0334
     55  N         -1.0740    4.5870   70.4720 N.am  261  VAL261     -0.1977
     56  CA        -0.5780    3.2850   70.0540 C.3   261  VAL261      0.1596
     57  C         -0.2210    2.4910   71.3140 C.2   261  VAL261      0.2287
     58  O          0.4720    3.0000   72.2090 O.2   261  VAL261     -0.2864
     59  CB         0.6780    3.4230   69.1510 C.3   261  VAL261      0.0276
     60  CG1        1.3130    2.0570   68.9130 C.3   261  VAL261      0.0022
     61  CG2        0.2680    4.0370   67.8030 C.3   261  VAL261      0.0022
     62  N          0.4290   -1.2440   70.9770 N.3   263  ASN263     -0.1240
     63  CA         0.8980   -2.5770   70.5790 C.3   263  ASN263      0.1653
     64  C          2.3690   -2.5970   70.2040 C.2   263  ASN263      0.2266
     65  O          2.8720   -3.6140   69.7120 O.2   263  ASN263     -0.2867
     66  CB         0.0840   -3.0870   69.3760 C.3   263  ASN263      0.1155
     67  CG         0.2710   -2.2190   68.1370 C.2   263  ASN263      0.2627
     68  OD1        0.9050   -1.1670   68.1940 O.2   263  ASN263     -0.2716
     69  ND2       -0.2850   -2.6540   67.0120 N.am  263  ASN263     -0.0877
     70  N          1.7580    4.9390   74.2420 N.3   278  PHE278     -0.1227
     71  CA         2.1790    6.3170   74.2010 C.3   278  PHE278      0.1736
     72  C          1.1560    7.0820   73.4170 C.2   278  PHE278      0.2596
     73  O          0.4210    6.5180   72.6110 O.2   278  PHE278     -0.2718
     74  CB         3.5520    6.4320   73.5400 C.3   278  PHE278      0.0547
     75  CG         3.6160    5.8380   72.1470 C.ar  278  PHE278     -0.0202
     76  CD1        3.1970    6.5670   71.0470 C.ar  278  PHE278     -0.0042
     77  CD2        4.1250    4.5630   71.9500 C.ar  278  PHE278     -0.0042
     78  CE1        3.2880    6.0330   69.7460 C.ar  278  PHE278     -0.0003
     79  CE2        4.2220    4.0190   70.6590 C.ar  278  PHE278     -0.0003
     80  CZ         3.8020    4.7580   69.5620 C.ar  278  PHE278     -0.0000
     81  N          1.1290    8.3820   73.6430 N.am  279  SER279     -0.1938
     82  CA         0.1780    9.2220   72.9640 C.3   279  SER279      0.2055
     83  C          0.7110   10.6360   72.9170 C.2   279  SER279      0.2644
     84  O          1.4240   11.0700   73.8100 O.2   279  SER279     -0.2714
     85  CB        -1.1380    9.2030   73.7340 C.3   279  SER279      0.2130
     86  OG        -0.9200    9.6090   75.0800 O.3   279  SER279     -0.2179
     87  N          0.3620   11.3500   71.8580 N.am  280  GLY280     -0.1939
     88  CA         0.7670   12.7330   71.7210 C.3   280  GLY280      0.2014
     89  C         -0.5390   13.3790   71.3170 C.2   280  GLY280      0.2639
     90  O         -1.4280   13.5520   72.1440 O.2   280  GLY280     -0.2714
     91  N         -0.6560   13.7310   70.0390 N.am  281  TRP281     -0.1959
     92  CA        -1.8880   14.2940   69.5280 C.3   281  TRP281      0.1771
     93  C         -1.9280   14.0270   68.0330 C.2   281  TRP281      0.2619
     94  O         -0.9280   13.6920   67.4290 O.2   281  TRP281     -0.2715
     95  CB        -2.0310   15.7940   69.8750 C.3   281  TRP281      0.0590
     96  CG        -0.9170   16.6800   69.4960 C.ar  281  TRP281      0.0006
     97  CD1       -0.6250   17.1370   68.2460 C.ar  281  TRP281      0.0946
     98  CD2        0.0570   17.2520   70.3740 C.ar  281  TRP281      0.0152
     99  NE1        0.4710   17.9620   68.2880 N.ar  281  TRP281     -0.2442
    100  CE2        0.9150   18.0460   69.5800 C.ar  281  TRP281      0.0810
    101  CE3        0.2910   17.1680   71.7560 C.ar  281  TRP281      0.0012
    102  CZ2        2.0000   18.7570   70.1200 C.ar  281  TRP281      0.0191
    103  CZ3        1.3600   17.8710   72.2950 C.ar  281  TRP281      0.0001
    104  CH2        2.2070   18.6590   71.4730 C.ar  281  TRP281      0.0015
    105  N         -3.0990   14.1520   67.4490 N.am  282  TYR282     -0.1974
    106  CA        -3.2800   13.8720   66.0520 C.3   282  TYR282      0.1639
    107  C         -2.8070   14.9100   65.0700 C.2   282  TYR282      0.2290
    108  O         -2.7920   16.0980   65.3530 O.2   282  TYR282     -0.2864
    109  CB        -4.7680   13.6400   65.7730 C.3   282  TYR282      0.0560
    110  CG        -5.1970   12.2090   65.8610 C.ar  282  TYR282     -0.0198
    111  CD1       -4.6910   11.2670   64.9730 C.ar  282  TYR282     -0.0009
    112  CD2       -6.1300   11.7970   66.8120 C.ar  282  TYR282     -0.0009
    113  CE1       -5.0950    9.9660   65.0210 C.ar  282  TYR282      0.0417
    114  CE2       -6.5440   10.4840   66.8670 C.ar  282  TYR282      0.0417
    115  CZ        -6.0280    9.5760   65.9650 C.ar  282  TYR282      0.1957
    116  OH        -6.4800    8.2890   65.9450 O.3   282  TYR282     -0.2866
    117  N         -4.2170   12.0760   59.5390 N.3   286  GLU286     -0.1245
    118  CA        -4.3460   10.6890   60.0040 C.3   286  GLU286      0.1567
    119  C         -5.8280   10.3220   60.0430 C.2   286  GLU286      0.2260
    120  O         -6.2240    9.2120   59.6620 O.2   286  GLU286     -0.2867
    121  CB        -3.7460   10.5200   61.4050 C.3   286  GLU286      0.0388
    122  CG        -2.2910   10.9690   61.5310 C.3   286  GLU286      0.1160
    123  CD        -1.7310   10.7100   62.9370 C.2   286  GLU286      0.3649
    124  OE1       -1.3660   11.6690   63.6550 O.co2 286  GLU286     -0.2457
    125  OE2       -1.6630    9.5300   63.3170 O.co2 286  GLU286     -0.2457
    126  N         -6.5320    9.1220   56.1170 N.3   290  ARG290     -0.1231
    127  CA        -6.3890    7.6830   56.2560 C.3   290  ARG290      0.1694
    128  C         -7.5780    7.0240   56.9370 C.2   290  ARG290      0.2592
    129  O         -8.2380    6.1800   56.3390 O.2   290  ARG290     -0.2718
    130  CB        -5.0830    7.3620   57.0080 C.3   290  ARG290      0.0321
    131  CG        -3.8340    8.0410   56.3890 C.3   290  ARG290      0.0489
    132  CD        -3.6250    7.6270   54.9100 C.3   290  ARG290      0.2205
    133  NE        -3.7080    6.1820   54.7710 N.pl3 290  ARG290     -0.0865
    134  CZ        -2.8180    5.3070   55.2460 C.cat 290  ARG290      0.5346
    135  NH1       -1.7300    5.7160   55.8930 N.pl3 290  ARG290      0.1354
    136  NH2       -3.0490    4.0000   55.1090 N.pl3 290  ARG290      0.1354
    137  N         -7.8790    7.4310   58.1610 N.am  291  ASP291     -0.1974
    138  CA        -8.9840    6.8090   58.8800 C.3   291  ASP291      0.1709
    139  C        -10.2910    6.8920   58.1340 C.2   291  ASP291      0.2293
    140  O        -10.9630    5.8860   57.9150 O.2   291  ASP291     -0.2864
    141  CB        -9.1310    7.4400   60.2670 C.3   291  ASP291      0.1436
    142  CG        -7.9550    7.1250   61.1600 C.2   291  ASP291      0.3671
    143  OD1       -7.3330    6.0620   60.9440 O.co2 291  ASP291     -0.2456
    144  OD2       -7.6540    7.9210   62.0710 O.co2 291  ASP291     -0.2456
    145  N        -10.8940    1.4300   55.0650 N.3   297  ARG297     -0.1245
    146  CA       -11.2270    1.9600   56.3900 C.3   297  ARG297      0.1563
    147  C        -12.6680    2.4680   56.3330 C.2   297  ARG297      0.2260
    148  O        -13.5190    1.7960   55.7700 O.2   297  ARG297     -0.2867
    149  CB       -10.2450    3.0730   56.8050 C.3   297  ARG297      0.0307
    150  CG        -8.8100    2.5750   56.9740 C.3   297  ARG297      0.0489
    151  CD        -8.6980    1.5550   58.0910 C.3   297  ARG297      0.2205
    152  NE        -9.0880    2.1140   59.3880 N.pl3 297  ARG297     -0.0865
    153  CZ        -8.3930    3.0480   60.0330 C.cat 297  ARG297      0.5346
    154  NH1       -7.2750    3.5160   59.5030 N.pl3 297  ARG297      0.1354
    155  NH2       -8.8210    3.5340   61.1900 N.pl3 297  ARG297      0.1354
    156  N          6.4890    7.7430   55.2030 N.3   371  TRP371     -0.1241
    157  CA         5.6130    8.0180   56.3420 C.3   371  TRP371      0.1605
    158  C          5.5530    9.4880   56.7420 C.2   371  TRP371      0.2264
    159  O          4.5110    9.9680   57.1910 O.2   371  TRP371     -0.2867
    160  CB         6.0370    7.1830   57.5440 C.3   371  TRP371      0.0550
    161  CG         5.4870    5.7910   57.5360 C.ar  371  TRP371      0.0003
    162  CD1        5.6970    4.8290   56.6010 C.ar  371  TRP371      0.0946
    163  CD2        4.6110    5.2180   58.5180 C.ar  371  TRP371      0.0152
    164  NE1        5.0080    3.6840   56.9310 N.ar  371  TRP371     -0.2442
    165  CE2        4.3310    3.8950   58.1020 C.ar  371  TRP371      0.0810
    166  CE3        4.0380    5.6980   59.7080 C.ar  371  TRP371      0.0012
    167  CZ2        3.5000    3.0360   58.8340 C.ar  371  TRP371      0.0191
    168  CZ3        3.2070    4.8390   60.4490 C.ar  371  TRP371      0.0001
    169  CH2        2.9470    3.5180   60.0000 C.ar  371  TRP371      0.0015
    170  N          7.7360   -2.9230   66.2640 N.3   399  TYR399     -0.1241
    171  CA         6.5680   -3.7610   66.1310 C.3   399  TYR399      0.1605
    172  C          6.8220   -5.0960   66.8270 C.2   399  TYR399      0.2264
    173  O          7.9650   -5.5140   67.0100 O.2   399  TYR399     -0.2867
    174  CB         6.2690   -3.9890   64.6400 C.3   399  TYR399      0.0534
    175  CG         5.9390   -2.7040   63.8880 C.ar  399  TYR399     -0.0201
    176  CD1        4.9420   -1.8540   64.3420 C.ar  399  TYR399     -0.0009
    177  CD2        6.5920   -2.3680   62.7050 C.ar  399  TYR399     -0.0009
    178  CE1        4.5940   -0.7010   63.6430 C.ar  399  TYR399      0.0417
    179  CE2        6.2460   -1.2170   61.9850 C.ar  399  TYR399      0.0417
    180  CZ         5.2380   -0.3870   62.4700 C.ar  399  TYR399      0.1957
    181  OH         4.8580    0.7520   61.7830 O.3   399  TYR399     -0.2866
@<TRIPOS>BOND
     1   133   132    1
     2   133   134    2
     3   132   131    1
     4     1     2    1
     5   145   146    1
     6   136   134    1
     7     8     7    1
     8   156   157    1
     9   134   135    1
    10   148   147    2
    11   126   127    1
    12   127   128    1
    13   127   130    1
    14     2     5    1
    15     2     3    1
    16   147   146    1
    17   129   128    2
    18   157   158    1
    19   157   160    1
    20     5     6    1
    21   131   130    1
    22   146   149    1
    23   162   164   ar
    24   162   161   ar
    25   158   159    2
    26   149   150    1
    27     7     6    1
    28    12    11    2
    29   164   165   ar
    30   128   137   am
    31   150   151    1
    32     9     3   am
    33     9    10    1
    34   161   160    1
    35   161   163   ar
    36     3     4    2
    37   140   139    2
    38    11    10    1
    39   151   152    1
    40   165   163   ar
    41   165   167   ar
    42   139   138    1
    43   137   138    1
    44    10    13    1
    45   163   166   ar
    46   167   169   ar
    47   138   141    1
    48    13    14    1
    49   152   153    2
    50    14    15    1
    51    14    16    1
    52   154   153    1
    53   117   118    1
    54   120   119    2
    55   166   168   ar
    56   169   168   ar
    57   118   119    1
    58   118   121    1
    59   153   155    1
    60   141   142    1
    61   143   142   ar
    62   142   144   ar
    63   121   122    1
    64   122   123    1
    65   181   180    1
    66   179   180   ar
    67   179   177   ar
    68   180   178   ar
    69   177   175   ar
    70   123   125   ar
    71   123   124   ar
    72   178   176   ar
    73   175   176   ar
    74   175   174    1
    75    41    40    1
    76    42    40    1
    77   174   171    1
    78    40    39    2
    79   111   113   ar
    80   111   110   ar
    81   113   115   ar
    82   107   108    2
    83   107   106    1
    84   109   110    1
    85   109   106    1
    86   110   112   ar
    87    31    29   am
    88   116   115    1
    89   115   114   ar
    90    39    38    1
    91   106   105    1
    92   171   170    1
    93   171   172    1
    94   112   114   ar
    95   172   173    2
    96    38    37    1
    97    69    67   am
    98    22    21    1
    99    29    30    2
   100    29    28    1
   101    21    18    1
   102    94    93    2
   103   105    93   am
   104    61    59    1
   105    93    92    1
   106    67    68    2
   107    67    66    1
   108    28    27    1
   109    97    99   ar
   110    97    96   ar
   111    47    48    1
   112    47    44    1
   113    99   100   ar
   114    37    36    1
   115    36    33    1
   116    34    33    1
   117    34    35    2
   118    18    19    1
   119    18    17    1
   120    33    32    1
   121    60    59    1
   122    48    49    1
   123    20    19    2
   124    59    56    1
   125    19    23   am
   126    27    24    1
   127    66    63    1
   128    44    43    1
   129    44    45    1
   130    96    95    1
   131    96    98   ar
   132    92    95    1
   133    92    91    1
   134    80    78   ar
   135    80    79   ar
   136   100   102   ar
   137   100    98   ar
   138    65    64    2
   139    78    76   ar
   140    23    24    1
   141    49    43    1
   142    91    89   am
   143    56    55    1
   144    56    57    1
   145   102   104   ar
   146    64    63    1
   147    24    25    1
   148    98   101   ar
   149    45    50   am
   150    45    46    2
   151    55    52   am
   152    63    62    1
   153    79    77   ar
   154    50    51    1
   155    76    75   ar
   156    57    58    2
   157    89    88    1
   158    89    90    2
   159    52    51    1
   160    52    53    2
   161   104   103   ar
   162    25    26    2
   163    51    54    1
   164    88    87    1
   165   101   103   ar
   166    87    83   am
   167    77    75   ar
   168    75    74    1
   169    73    72    2
   170    83    82    1
   171    83    84    2
   172    82    81    1
   173    82    85    1
   174    72    81   am
   175    72    71    1
   176    74    71    1
   177    85    86    1
   178    71    70    1
