@<TRIPOS>MOLECULE
tmp/1zzuA03.pdb
 172 168 0 0 0
SMALL
GASTEIGER

@<TRIPOS>ATOM
      1  N          2.9870    8.9370   34.8800 N.3    38  VAL38      -0.1231
      2  CA         3.4220    8.5710   33.5340 C.3    38  VAL38       0.1692
      3  C          3.2510    9.6930   32.5050 C.2    38  VAL38       0.2591
      4  O          4.1650    9.9660   31.7240 O.2    38  VAL38      -0.2718
      5  CB         2.6720    7.3090   33.0370 C.3    38  VAL38       0.0266
      6  CG1        3.0320    7.0160   31.5800 C.3    38  VAL38       0.0020
      7  CG2        3.0310    6.1170   33.9080 C.3    38  VAL38       0.0020
      8  N          2.0850   10.3400   32.5100 N.am   39  LEU39      -0.1980
      9  CA         1.7940   11.4310   31.5770 C.3    39  LEU39       0.1596
     10  C          1.4340   12.6950   32.3660 C.2    39  LEU39       0.2287
     11  O          0.2580   13.0200   32.5280 O.2    39  LEU39      -0.2864
     12  CB         0.6100   11.0520   30.6800 C.3    39  LEU39       0.0297
     13  CG         0.5570    9.6430   30.0730 C.3    39  LEU39       0.0022
     14  CD1       -0.8410    9.3730   29.5070 C.3    39  LEU39       0.0001
     15  CD2        1.6130    9.4960   28.9940 C.3    39  LEU39       0.0001
     16  N          1.7760    2.0530   17.6420 N.3   168  SER168     -0.1202
     17  CA         2.5540    2.5450   18.7870 C.3   168  SER168      0.2020
     18  C          4.0370    2.1890   18.5920 C.2   168  SER168      0.2618
     19  O          4.9240    2.9160   19.0230 O.2   168  SER168     -0.2717
     20  CB         2.0260    1.9220   20.0860 C.3   168  SER168      0.2103
     21  OG         0.6530    2.2380   20.2780 O.3   168  SER168     -0.2182
     22  N          4.2850    1.0560   17.9430 N.am  169  GLN169     -0.1979
     23  CA         5.6330    0.5870   17.6000 C.3   169  GLN169      0.1601
     24  C          5.4890   -0.0230   16.2050 C.2   169  GLN169      0.2287
     25  O          4.4270   -0.5690   15.8810 O.2   169  GLN169     -0.2864
     26  CB         6.1140   -0.4900   18.5570 C.3   169  GLN169      0.0394
     27  CG         6.5530    0.0280   19.9180 C.3   169  GLN169      0.0908
     28  CD         6.8900   -1.1020   20.8690 C.2   169  GLN169      0.2608
     29  OE1        6.4100   -1.1400   22.0060 O.2   169  GLN169     -0.2717
     30  NE2        7.7240   -2.0280   20.4130 N.am  169  GLN169     -0.0878
     31  N          4.4400   -4.9370   16.5310 N.3   172  ARG172     -0.1245
     32  CA         3.7380   -5.3390   17.7580 C.3   172  ARG172      0.1563
     33  C          2.7580   -6.4730   17.4360 C.2   172  ARG172      0.2260
     34  O          2.4270   -6.7040   16.2720 O.2   172  ARG172     -0.2867
     35  CB         2.9650   -4.1680   18.3750 C.3   172  ARG172      0.0307
     36  CG         3.8360   -3.0110   18.8650 C.3   172  ARG172      0.0489
     37  CD         3.1010   -2.1560   19.8940 C.3   172  ARG172      0.2205
     38  NE         3.0690   -2.8160   21.1930 N.pl3 172  ARG172     -0.0865
     39  CZ         2.4620   -2.3340   22.2760 C.cat 172  ARG172      0.5346
     40  NH1        1.8210   -1.1690   22.2290 N.pl3 172  ARG172      0.1354
     41  NH2        2.4950   -3.0290   23.4110 N.pl3 172  ARG172      0.1354
     42  N         12.7320   -3.1920   18.5650 N.3   256  PRO256     -0.2116
     43  CA        11.8340   -2.2990   19.3060 C.3   256  PRO256      0.1372
     44  C         11.8530   -0.9830   18.5340 C.2   256  PRO256      0.2244
     45  O         12.9140   -0.3790   18.3600 O.2   256  PRO256     -0.2868
     46  CB        12.4980   -2.1980   20.6790 C.3   256  PRO256      0.0268
     47  CG        13.9600   -2.2920   20.3620 C.3   256  PRO256      0.0207
     48  CD        14.0410   -3.3220   19.2410 C.3   256  PRO256      0.0892
     49  N          9.6220    2.4390   18.5300 N.3   258  VAL258     -0.1245
     50  CA         8.6000    3.3930   18.9290 C.3   258  VAL258      0.1561
     51  C          8.2200    4.2660   17.7460 C.2   258  VAL258      0.2260
     52  O          9.0740    4.9360   17.1610 O.2   258  VAL258     -0.2867
     53  CB         9.1150    4.3000   20.0710 C.3   258  VAL258      0.0252
     54  CG1        8.1750    5.4970   20.2610 C.3   258  VAL258      0.0019
     55  CG2        9.2060    3.5000   21.3480 C.3   258  VAL258      0.0019
     56  N          5.0530    6.3450   17.8040 N.3   260  ASN260     -0.1225
     57  CA         3.9870    7.3040   18.0830 C.3   260  ASN260      0.1785
     58  C          4.3650    8.6000   18.7870 C.2   260  ASN260      0.2597
     59  O          3.4860    9.3560   19.1910 O.2   260  ASN260     -0.2718
     60  CB         2.8620    6.6180   18.8620 C.3   260  ASN260      0.1169
     61  CG         3.3290    6.0640   20.1890 C.2   260  ASN260      0.2627
     62  OD1        4.5150    6.1210   20.5150 O.2   260  ASN260     -0.2716
     63  ND2        2.4000    5.5230   20.9650 N.am  260  ASN260     -0.0877
     64  N          5.6570    8.8850   18.9130 N.am  261  MET261     -0.1979
     65  CA         6.0610   10.1160   19.5770 C.3   261  MET261      0.1605
     66  C          6.2470   11.2570   18.5860 C.2   261  MET261      0.2287
     67  O          6.3040   11.0350   17.3750 O.2   261  MET261     -0.2864
     68  CB         7.3390    9.8760   20.3790 C.3   261  MET261      0.0413
     69  CG         7.1490    8.8290   21.4670 C.3   261  MET261      0.0598
     70  SD         8.5530    8.7020   22.5930 S.3   261  MET261     -0.1393
     71  CE         8.2280   10.1040   23.6900 C.3   261  MET261      0.0692
     72  N         11.5550    5.5330   15.4540 N.3   275  PHE275     -0.1227
     73  CA        12.9710    5.3150   15.7670 C.3   275  PHE275      0.1736
     74  C         13.1630    3.9520   16.4160 C.2   275  PHE275      0.2596
     75  O         12.2150    3.3710   16.9440 O.2   275  PHE275     -0.2718
     76  CB        13.4940    6.4270   16.6820 C.3   275  PHE275      0.0547
     77  CG        12.7710    6.5420   18.0020 C.ar  275  PHE275     -0.0202
     78  CD1       13.0150    5.6380   19.0320 C.ar  275  PHE275     -0.0042
     79  CD2       11.8920    7.5990   18.2360 C.ar  275  PHE275     -0.0042
     80  CE1       12.3990    5.7900   20.2830 C.ar  275  PHE275     -0.0003
     81  CE2       11.2710    7.7620   19.4770 C.ar  275  PHE275     -0.0003
     82  CZ        11.5240    6.8650   20.4990 C.ar  275  PHE275     -0.0000
     83  N         14.3870    3.4330   16.3690 N.am  276  SER276     -0.1938
     84  CA        14.6470    2.1350   16.9480 C.3   276  SER276      0.2055
     85  C         16.0980    1.9800   17.3770 C.2   276  SER276      0.2644
     86  O         16.9920    2.6230   16.8250 O.2   276  SER276     -0.2714
     87  CB        14.2900    1.0310   15.9360 C.3   276  SER276      0.2130
     88  OG        15.0540    1.1620   14.7330 O.3   276  SER276     -0.2179
     89  N         16.3070    1.1160   18.3710 N.am  277  GLY277     -0.1939
     90  CA        17.6400    0.8170   18.8740 C.3   277  GLY277      0.2014
     91  C         17.6610   -0.6930   19.0240 C.2   277  GLY277      0.2639
     92  O         17.6170   -1.4240   18.0310 O.2   277  GLY277     -0.2714
     93  N         17.7680   -1.1630   20.2580 N.am  278  TRP278     -0.1959
     94  CA        17.7160   -2.5950   20.5470 C.3   278  TRP278      0.1771
     95  C         17.1890   -2.7610   21.9660 C.2   278  TRP278      0.2619
     96  O         17.1850   -1.8160   22.7560 O.2   278  TRP278     -0.2715
     97  CB        19.0810   -3.2860   20.3690 C.3   278  TRP278      0.0590
     98  CG        20.2430   -2.6570   21.0750 C.ar  278  TRP278      0.0006
     99  CD1       20.5950   -2.8050   22.3890 C.ar  278  TRP278      0.0946
    100  CD2       21.2310   -1.8090   20.4850 C.ar  278  TRP278      0.0152
    101  NE1       21.7480   -2.1010   22.6490 N.ar  278  TRP278     -0.2442
    102  CE2       22.1590   -1.4810   21.4970 C.ar  278  TRP278      0.0810
    103  CE3       21.4250   -1.2960   19.1920 C.ar  278  TRP278      0.0012
    104  CZ2       23.2680   -0.6590   21.2610 C.ar  278  TRP278      0.0191
    105  CZ3       22.5330   -0.4720   18.9530 C.ar  278  TRP278      0.0001
    106  CH2       23.4390   -0.1660   19.9870 C.ar  278  TRP278      0.0015
    107  N         16.7450   -3.9680   22.2800 N.am  279  TYR279     -0.1974
    108  CA        16.1550   -4.2690   23.5850 C.3   279  TYR279      0.1639
    109  C         17.0670   -4.4300   24.7890 C.2   279  TYR279      0.2290
    110  O         18.2070   -4.8700   24.6650 O.2   279  TYR279     -0.2864
    111  CB        15.3530   -5.5690   23.4870 C.3   279  TYR279      0.0560
    112  CG        13.9150   -5.4140   23.0770 C.ar  279  TYR279     -0.0198
    113  CD1       13.4410   -6.0020   21.9090 C.ar  279  TYR279     -0.0009
    114  CD2       13.0110   -4.7170   23.8800 C.ar  279  TYR279     -0.0009
    115  CE1       12.1030   -5.8980   21.5440 C.ar  279  TYR279      0.0417
    116  CE2       11.6710   -4.6090   23.5230 C.ar  279  TYR279      0.0417
    117  CZ        11.2260   -5.2060   22.3540 C.ar  279  TYR279      0.1957
    118  OH         9.9050   -5.0910   21.9850 O.3   279  TYR279     -0.2866
    119  N         12.8650   -5.5460   29.4150 N.3   283  GLU283     -0.1245
    120  CA        11.7010   -5.0290   28.7210 C.3   283  GLU283      0.1567
    121  C         10.7510   -6.1700   28.3390 C.2   283  GLU283      0.2260
    122  O          9.5370   -6.0550   28.4840 O.2   283  GLU283     -0.2867
    123  CB        12.1010   -4.2700   27.4430 C.3   283  GLU283      0.0388
    124  CG        12.8430   -2.9500   27.6790 C.3   283  GLU283      0.1160
    125  CD        13.0510   -2.1590   26.3920 C.2   283  GLU283      0.3649
    126  OE1       12.0590   -1.6210   25.8510 O.co2 283  GLU283     -0.2457
    127  OE2       14.2070   -2.0850   25.9140 O.co2 283  GLU283     -0.2457
    128  N          6.7540   -7.1760   29.4010 N.3   288  ASN288     -0.1240
    129  CA         5.8920   -7.7870   28.3870 C.3   288  ASN288      0.1653
    130  C          5.3290   -9.1480   28.7590 C.2   288  ASN288      0.2266
    131  O          4.1640   -9.4340   28.4830 O.2   288  ASN288     -0.2867
    132  CB         6.6360   -7.9060   27.0530 C.3   288  ASN288      0.1155
    133  CG         7.1800   -6.5790   26.5750 C.2   288  ASN288      0.2627
    134  OD1        6.7250   -5.5250   27.0080 O.2   288  ASN288     -0.2716
    135  ND2        8.1560   -6.6260   25.6630 N.am  288  ASN288     -0.0877
    136  N         -0.3370   -7.8640   30.6920 N.3   294  ARG294     -0.1245
    137  CA         0.3120   -8.2270   29.4340 C.3   294  ARG294      0.1563
    138  C          0.1770   -9.7420   29.2540 C.2   294  ARG294      0.2260
    139  O         -0.8990  -10.2890   29.5290 O.2   294  ARG294     -0.2867
    140  CB         1.7830   -7.7830   29.4340 C.3   294  ARG294      0.0307
    141  CG         1.9590   -6.2590   29.5080 C.3   294  ARG294      0.0489
    142  CD         1.3300   -5.5350   28.3020 C.3   294  ARG294      0.2205
    143  NE         1.9960   -5.8880   27.0460 N.pl3 294  ARG294     -0.0865
    144  CZ         3.2370   -5.5260   26.7170 C.cat 294  ARG294      0.5346
    145  NH1        3.9640   -4.7820   27.5460 N.pl3 294  ARG294      0.1354
    146  NH2        3.7670   -5.9350   25.5640 N.pl3 294  ARG294      0.1354
    147  N         12.1180    5.7080   35.6400 N.3   369  TRP369     -0.1241
    148  CA        12.2060    4.9480   34.3930 C.3   369  TRP369      0.1605
    149  C         13.5710    4.3110   34.1450 C.2   369  TRP369      0.2264
    150  O         13.6620    3.2540   33.5170 O.2   369  TRP369     -0.2867
    151  CB        11.8600    5.8490   33.2030 C.3   369  TRP369      0.0550
    152  CG        10.3990    5.9050   32.9420 C.ar  369  TRP369      0.0003
    153  CD1        9.4210    6.3440   33.7970 C.ar  369  TRP369      0.0946
    154  CD2        9.7270    5.4240   31.7710 C.ar  369  TRP369      0.0152
    155  NE1        8.1770    6.1540   33.2260 N.ar  369  TRP369     -0.2442
    156  CE2        8.3410    5.5920   31.9840 C.ar  369  TRP369      0.0810
    157  CE3       10.1670    4.8610   30.5620 C.ar  369  TRP369      0.0012
    158  CZ2        7.3860    5.2160   31.0340 C.ar  369  TRP369      0.0191
    159  CZ3        9.2100    4.4810   29.6090 C.ar  369  TRP369      0.0001
    160  CH2        7.8380    4.6620   29.8570 C.ar  369  TRP369      0.0015
    161  N          5.2280   12.9680   23.9720 N.3   397  TYR397     -0.1241
    162  CA         4.0860   12.0870   23.8220 C.3   397  TYR397      0.1605
    163  C          3.0530   12.9050   23.0360 C.2   397  TYR397      0.2264
    164  O          3.0940   14.1320   23.0380 O.2   397  TYR397     -0.2867
    165  CB         3.5100   11.7410   25.1930 C.3   397  TYR397      0.0534
    166  CG         4.2640   10.6780   25.9660 C.ar  397  TYR397     -0.0201
    167  CD1        4.3180   10.7210   27.3630 C.ar  397  TYR397     -0.0009
    168  CD2        4.8400    9.5830   25.3210 C.ar  397  TYR397     -0.0009
    169  CE1        4.9170    9.6940   28.0980 C.ar  397  TYR397      0.0417
    170  CE2        5.4400    8.5490   26.0480 C.ar  397  TYR397      0.0417
    171  CZ         5.4690    8.6130   27.4340 C.ar  397  TYR397      0.1957
    172  OH         6.0160    7.5820   28.1650 O.3   397  TYR397     -0.2866
@<TRIPOS>BOND
     1    88    87    1
     2    72    73    1
     3    73    74    1
     4    73    76    1
     5    25    24    2
     6    87    84    1
     7    24    23    1
     8    34    33    2
     9    83    74   am
    10    83    84    1
    11    74    75    2
    12    31    32    1
    13    76    77    1
    14    86    85    2
    15    84    85    1
    16    52    51    2
    17    67    66    2
    18    85    89   am
    19    33    32    1
    20    23    22    1
    21    23    26    1
    22    16    17    1
    23    51    50    1
    24    32    35    1
    25    56    57    1
    26    22    18   am
    27    77    79   ar
    28    77    78   ar
    29    92    91    2
    30    57    58    1
    31    57    60    1
    32    79    81   ar
    33    45    44    2
    34    89    90    1
    35    35    36    1
    36    49    50    1
    37    44    43    1
    38    26    27    1
    39    42    48    1
    40    42    43    1
    41    66    65    1
    42    18    17    1
    43    18    19    2
    44    58    64   am
    45    58    59    2
    46    17    20    1
    47    60    61    1
    48    36    37    1
    49    90    91    1
    50    64    65    1
    51    50    53    1
    52   105   103   ar
    53   105   106   ar
    54    91    93   am
    55    78    80   ar
    56   103   100   ar
    57    48    47    1
    58    43    46    1
    59    81    82   ar
    60    65    68    1
    61    37    38    1
    62    27    28    1
    63   106   104   ar
    64    53    54    1
    65    53    55    1
    66    20    21    1
    67    61    62    2
    68    61    63   am
    69    93    94    1
    70    80    82   ar
    71    47    46    1
    72    97    94    1
    73    97    98    1
    74    68    69    1
    75    30    28   am
    76   100    98   ar
    77   100   102   ar
    78    94    95    1
    79    28    29    2
    80    98    99   ar
    81    38    39    2
    82   104   102   ar
    83    69    70    1
    84   102   101   ar
    85   115   113   ar
    86   115   117   ar
    87   113   112   ar
    88    95   107   am
    89    95    96    2
    90   118   117    1
    91    40    39    1
    92    39    41    1
    93   107   108    1
    94   117   116   ar
    95    99   101   ar
    96    70    71    1
    97   163   164    2
    98   163   162    1
    99   112   111    1
   100   112   114   ar
   101   111   108    1
   102   116   114   ar
   103   108   109    1
   104   162   161    1
   105   162   165    1
   106   110   109    2
   107   165   166    1
   108   168   166   ar
   109   168   170   ar
   110   146   144    1
   111   135   133   am
   112   126   125   ar
   113   127   125   ar
   114   166   167   ar
   115   170   171   ar
   116   125   124    1
   117   133   134    2
   118   133   132    1
   119   144   143    2
   120   144   145    1
   121   143   142    1
   122   132   129    1
   123   167   169   ar
   124   171   169   ar
   125   171   172    1
   126   123   124    1
   127   123   120    1
   128   142   141    1
   129   121   122    2
   130   121   120    1
   131   129   130    1
   132   129   128    1
   133   131   130    2
   134   120   119    1
   135    15    13    1
   136   138   137    1
   137   138   139    2
   138   137   140    1
   139   137   136    1
   140   140   141    1
   141    14    13    1
   142   159   160   ar
   143   159   157   ar
   144   160   158   ar
   145    13    12    1
   146   157   154   ar
   147    12     9    1
   148   158   156   ar
   149     9    10    1
   150     9     8    1
   151     6     5    1
   152     4     3    2
   153   154   156   ar
   154   154   152   ar
   155   156   155   ar
   156    10    11    2
   157     3     8   am
   158     3     2    1
   159   152   151    1
   160   152   153   ar
   161     5     2    1
   162     5     7    1
   163   151   148    1
   164   155   153   ar
   165   150   149    2
   166     2     1    1
   167   149   148    1
   168   148   147    1
