@<TRIPOS>MOLECULE
tmp/1zzzA00.pdb
 153 151 0 0 0
SMALL
GASTEIGER

@<TRIPOS>ATOM
      1  N         12.7750   -4.1120   36.6680 N.3    24  PHE24      -0.1227
      2  CA        14.1310   -3.5760   36.4710 C.3    24  PHE24       0.1736
      3  C         14.6750   -3.9400   35.0900 C.2    24  PHE24       0.2592
      4  O         15.6420   -3.2430   34.7130 O.2    24  PHE24      -0.2718
      5  CB        15.0710   -4.0930   37.5430 C.3    24  PHE24       0.0547
      6  CG        15.3980   -5.5580   37.5890 C.ar   24  PHE24      -0.0202
      7  CD1       16.4660   -6.0330   36.8390 C.ar   24  PHE24      -0.0042
      8  CD2       14.6720   -6.4390   38.3970 C.ar   24  PHE24      -0.0042
      9  CE1       16.7440   -7.3730   36.7500 C.ar   24  PHE24      -0.0003
     10  CE2       15.0220   -7.7970   38.4410 C.ar   24  PHE24      -0.0003
     11  CZ        16.0760   -8.2480   37.6270 C.ar   24  PHE24      -0.0000
     12  N         14.1490   -4.9680   34.4070 N.am   25  CYS25      -0.2023
     13  CA        14.7330   -5.1940   33.0580 C.3    25  CYS25       0.1398
     14  C         13.6370   -5.9220   32.2570 C.3    25  CYS25       0.2045
     15  O         12.8150   -6.5560   32.9500 O.3    25  CYS25      -0.2185
     16  CB        16.0170   -6.0550   33.2360 C.3    25  CYS25       0.0930
     17  SG        17.5920   -5.1110   33.3660 S.3    25  CYS25      -0.0802
     18  N         24.0860   -7.4370   31.9750 N.3    40  HIS40      -0.1241
     19  CA        24.0260   -6.3220   32.9600 C.3    40  HIS40       0.1621
     20  C         22.7580   -6.3090   33.8060 C.2    40  HIS40       0.2264
     21  O         22.7630   -5.6110   34.8180 O.2    40  HIS40      -0.2867
     22  CB        24.3040   -4.9460   32.3540 C.3    40  HIS40       0.0745
     23  CG        23.2540   -4.2530   31.5810 C.ar   40  HIS40       0.0817
     24  ND1       23.0950   -4.3200   30.2030 N.ar   40  HIS40      -0.2268
     25  CD2       22.4150   -3.2600   32.0450 C.ar   40  HIS40       0.1154
     26  CE1       22.1210   -3.5100   29.8100 C.ar   40  HIS40       0.1986
     27  NE2       21.7700   -2.8150   30.9080 N.ar   40  HIS40      -0.2212
     28  N         30.6420   -3.7120   28.2580 N.3    81  LEU81      -0.1245
     29  CA        29.3590   -4.2940   27.8720 C.3    81  LEU81       0.1561
     30  C         29.5380   -5.1940   26.6530 C.2    81  LEU81       0.2260
     31  O         28.5500   -5.5480   25.9720 O.2    81  LEU81      -0.2867
     32  CB        28.2830   -3.1980   27.8190 C.3    81  LEU81       0.0270
     33  CG        27.9630   -2.5400   29.1660 C.3    81  LEU81       0.0019
     34  CD1       26.6350   -1.7790   29.1130 C.3    81  LEU81       0.0001
     35  CD2       27.6670   -3.5460   30.2770 C.3    81  LEU81       0.0001
     36  N         13.9220    6.2000   21.0530 N.3   171  ASP171     -0.1225
     37  CA        14.9730    5.2560   21.5300 C.3   171  ASP171      0.1805
     38  C         14.4370    4.3480   22.6700 C.2   171  ASP171      0.2598
     39  O         13.3680    4.6630   23.2070 O.2   171  ASP171     -0.2718
     40  CB        16.0880    6.1850   22.0110 C.3   171  ASP171      0.1424
     41  CG        17.4660    5.6190   22.2290 C.2   171  ASP171      0.3668
     42  OD1       17.7250    4.4590   21.8410 O.co2 171  ASP171     -0.2456
     43  OD2       18.3630    6.2270   22.8700 O.co2 171  ASP171     -0.2456
     44  N         15.3460    3.4310   23.0730 N.am  172  SER172     -0.1938
     45  CA        15.1360    2.6710   24.2990 C.3   172  SER172      0.2055
     46  C         15.7910    3.5100   25.3900 C.2   172  SER172      0.2643
     47  O         16.5710    4.4530   25.1110 O.2   172  SER172     -0.2714
     48  CB        15.5110    1.1880   24.1200 C.3   172  SER172      0.2130
     49  OG        16.8760    1.1350   23.7060 O.3   172  SER172     -0.2179
     50  N         15.4350    3.2470   26.6410 N.am  173  CYS173     -0.1953
     51  CA        15.9090    4.1120   27.7590 C.3   173  CYS173      0.1843
     52  C         15.9460    3.2080   29.0070 C.2   173  CYS173      0.2625
     53  O         15.6880    1.9840   28.9590 O.2   173  CYS173     -0.2714
     54  CB        14.9030    5.3000   27.8430 C.3   173  CYS173      0.0997
     55  SG        15.5130    6.6990   28.8750 S.3   173  CYS173     -0.0797
     56  N         16.4160    3.7730   30.1140 N.am  174  GLN174     -0.1963
     57  CA        16.5370    3.1290   31.4060 C.3   174  GLN174      0.1733
     58  C         15.2900    2.2400   31.6240 C.2   174  GLN174      0.2616
     59  O         14.1490    2.7110   31.5080 O.2   174  GLN174     -0.2715
     60  CB        16.6810    4.0410   32.6170 C.3   174  GLN174      0.0408
     61  CG        17.3890    5.3840   32.4420 C.3   174  GLN174      0.0908
     62  CD        16.5290    6.6370   32.6900 C.2   174  GLN174      0.2608
     63  OE1       16.2380    7.4580   31.7880 O.2   174  GLN174     -0.2717
     64  NE2       15.9550    6.7470   33.9080 N.am  174  GLN174     -0.0878
     65  N         15.5020    0.9490   31.8900 N.am  175  GLY175     -0.1955
     66  CA        14.3040    0.1120   32.2160 C.3   175  GLY175      0.1869
     67  C         14.0440   -0.9510   31.1300 C.2   175  GLY175      0.2309
     68  O         13.1790   -1.8320   31.3340 O.2   175  GLY175     -0.2863
     69  N         16.4480   -2.2450   29.2680 N.3   177  SER177     -0.1217
     70  CA        17.5510   -3.2080   29.1010 C.3   177  SER177      0.1889
     71  C         17.0530   -4.6810   29.1690 C.2   177  SER177      0.2288
     72  O         16.3190   -4.9550   30.1060 O.2   177  SER177     -0.2866
     73  CB        18.5750   -3.0100   30.2110 C.3   177  SER177      0.2089
     74  OG        19.2870   -1.8180   29.8340 O.3   177  SER177     -0.2183
     75  N         18.3590   -5.2090   24.2200 N.3   191  VAL191     -0.1231
     76  CA        18.6780   -3.8320   24.6430 C.3   191  VAL191      0.1692
     77  C         19.9310   -3.9040   25.5440 C.2   191  VAL191      0.2593
     78  O         19.8110   -4.3530   26.7280 O.2   191  VAL191     -0.2718
     79  CB        17.4290   -3.2440   25.3330 C.3   191  VAL191      0.0266
     80  CG1       17.6740   -1.8510   25.9120 C.3   191  VAL191      0.0020
     81  CG2       16.1990   -3.2490   24.4140 C.3   191  VAL191      0.0020
     82  N         20.8590   -2.9820   25.1990 N.am  192  SER192     -0.1938
     83  CA        22.1080   -3.0310   25.9530 C.3   192  SER192      0.2055
     84  C         22.5240   -1.6910   26.5430 C.2   192  SER192      0.2643
     85  O         22.2910   -1.4760   27.7880 O.2   192  SER192     -0.2714
     86  CB        23.1090   -3.8360   25.1210 C.3   192  SER192      0.2130
     87  OG        24.3290   -3.9710   25.8500 O.3   192  SER192     -0.2179
     88  N         23.0350   -0.8050   25.6730 N.am  193  TRP193     -0.1959
     89  CA        23.5160    0.5010   26.2310 C.3   193  TRP193      0.1771
     90  C         23.3590    1.6010   25.1810 C.2   193  TRP193      0.2620
     91  O         22.8750    1.4390   24.0470 O.2   193  TRP193     -0.2715
     92  CB        24.9870    0.3080   26.5640 C.3   193  TRP193      0.0590
     93  CG        25.9830   -0.0220   25.5230 C.ar  193  TRP193      0.0006
     94  CD1       26.3200   -1.2670   25.0590 C.ar  193  TRP193      0.0946
     95  CD2       26.9300    0.8450   24.8380 C.ar  193  TRP193      0.0152
     96  NE1       27.2070   -1.2230   23.9990 N.ar  193  TRP193     -0.2442
     97  CE2       27.6730    0.0780   23.9290 C.ar  193  TRP193      0.0810
     98  CE3       27.1010    2.2260   24.8510 C.ar  193  TRP193      0.0012
     99  CZ2       28.5270    0.6130   22.9760 C.ar  193  TRP193      0.0191
    100  CZ3       28.0030    2.7590   23.9330 C.ar  193  TRP193      0.0001
    101  CH2       28.7300    1.9790   23.0540 C.ar  193  TRP193      0.0015
    102  N         23.7860    2.7970   25.5750 N.am  194  GLY194     -0.1940
    103  CA        23.8580    3.9930   24.7250 C.3   194  GLY194      0.2014
    104  C         24.4850    5.1250   25.6000 C.2   194  GLY194      0.2640
    105  O         24.9210    4.8780   26.7530 O.2   194  GLY194     -0.2714
    106  N         24.0390    6.3090   25.1730 N.am  195  SER195     -0.1935
    107  CA        24.4610    7.5940   25.8040 C.3   195  SER195      0.2055
    108  C         23.2680    8.5020   26.0440 C.2   195  SER195      0.2644
    109  O         22.7350    9.0360   25.0300 O.2   195  SER195     -0.2714
    110  CB        25.4030    8.3160   24.8310 C.3   195  SER195      0.2130
    111  OG        26.1800    9.2020   25.6470 O.3   195  SER195     -0.2179
    112  N         22.7340    8.5410   27.2500 N.am  196  GLY196     -0.1939
    113  CA        21.4410    9.2280   27.4930 C.3   196  GLY196      0.2014
    114  C         20.2780    8.5090   26.7880 C.2   196  GLY196      0.2639
    115  O         20.4990    7.3290   26.3520 O.2   196  GLY196     -0.2714
    116  N         19.1220    9.1130   26.5470 N.am  197  CYS197     -0.1967
    117  CA        18.0680    8.4700   25.7500 C.3   197  CYS197      0.1712
    118  C         17.6260    9.4050   24.6330 C.2   197  CYS197      0.2296
    119  O         17.3170   10.5680   24.9470 O.2   197  CYS197     -0.2864
    120  CB        16.7890    8.1340   26.5250 C.3   197  CYS197      0.0983
    121  SG        17.3040    7.1800   27.9660 S.3   197  CYS197     -0.0798
    122  N         23.3480    9.8050   18.7770 N.3   202  LYS202     -0.1245
    123  CA        23.7050    8.8320   19.8280 C.3   202  LYS202      0.1561
    124  C         22.6070    7.7360   19.9040 C.2   202  LYS202      0.2260
    125  O         21.7890    7.7350   20.8260 O.2   202  LYS202     -0.2867
    126  CB        23.7410    9.4650   21.1950 C.3   202  LYS202      0.0271
    127  CG        24.5390   10.7440   21.3830 C.3   202  LYS202      0.0035
    128  CD        25.9610   10.4000   21.7850 C.3   202  LYS202      0.0206
    129  CE        26.7570   10.0670   20.5150 C.3   202  LYS202      0.1093
    130  NZ        28.2170   10.3920   20.7950 N.3   202  LYS202     -0.1314
    131  N         20.8330    3.9380   20.0650 N.3   204  GLY204     -0.1210
    132  CA        21.0010    2.8430   21.0680 C.3   204  GLY204      0.1956
    133  C         21.8710    1.7630   20.4400 C.2   204  GLY204      0.2612
    134  O         21.9470    1.5310   19.2210 O.2   204  GLY204     -0.2717
    135  N         22.5600    1.0220   21.2870 N.am  205  VAL205     -0.1965
    136  CA        23.4450   -0.1020   21.0650 C.3   205  VAL205      0.1727
    137  C         22.7710   -1.3780   21.6440 C.2   205  VAL205      0.2616
    138  O         22.2570   -1.4730   22.7840 O.2   205  VAL205     -0.2715
    139  CB        24.8840    0.1620   21.4780 C.3   205  VAL205      0.0290
    140  CG1       25.8300   -0.8890   20.8210 C.3   205  VAL205      0.0023
    141  CG2       25.4000    1.5690   21.1410 C.3   205  VAL205      0.0023
    142  N         22.9070   -2.3840   20.8170 N.am  206  TYR206     -0.1974
    143  CA        22.2640   -3.6870   21.0490 C.3   206  TYR206      0.1639
    144  C         23.2340   -4.8430   20.9420 C.2   206  TYR206      0.2290
    145  O         24.0890   -4.8210   20.0380 O.2   206  TYR206     -0.2864
    146  CB        21.0380   -3.8590   20.1060 C.3   206  TYR206      0.0560
    147  CG        20.0630   -2.6970   20.2410 C.ar  206  TYR206     -0.0198
    148  CD1       20.1690   -1.5330   19.4720 C.ar  206  TYR206     -0.0009
    149  CD2       19.0270   -2.7630   21.1760 C.ar  206  TYR206     -0.0009
    150  CE1       19.2500   -0.4960   19.6810 C.ar  206  TYR206      0.0417
    151  CE2       18.1280   -1.7410   21.4270 C.ar  206  TYR206      0.0417
    152  CZ        18.3900   -0.5210   20.7670 C.ar  206  TYR206      0.1957
    153  OH        17.5250    0.5360   20.9620 O.3   206  TYR206     -0.2866
@<TRIPOS>BOND
     1   122   123    1
     2   134   133    2
     3   148   150   ar
     4   148   147   ar
     5   150   152   ar
     6   123   124    1
     7   123   126    1
     8   124   125    2
     9   145   144    2
    10   131   132    1
    11   146   147    1
    12   146   143    1
    13   147   149   ar
    14   133   132    1
    15   133   135   am
    16   129   130    1
    17   129   128    1
    18   152   153    1
    19   152   151   ar
    20   142   143    1
    21   142   137   am
    22   140   139    1
    23   144   143    1
    24    36    37    1
    25   136   135    1
    26   136   139    1
    27   136   137    1
    28   141   139    1
    29   149   151   ar
    30   126   127    1
    31   127   128    1
    32    37    40    1
    33    37    38    1
    34   137   138    2
    35    42    41   ar
    36    40    41    1
    37    41    43   ar
    38    38    44   am
    39    38    39    2
    40    99   101   ar
    41    99    97   ar
    42   101   100   ar
    43    44    45    1
    44    49    48    1
    45    97    96   ar
    46    97    95   ar
    47   100    98   ar
    48    96    94   ar
    49    91    90    2
    50    48    45    1
    51    75    76    1
    52    45    46    1
    53    81    79    1
    54   118   119    2
    55   118   117    1
    56    76    79    1
    57    76    77    1
    58   103   102    1
    59   103   104    1
    60   110   111    1
    61   110   107    1
    62    95    98   ar
    63    95    93   ar
    64   109   108    2
    65    94    93   ar
    66    47    46    2
    67    86    87    1
    68    86    83    1
    69   106   104   am
    70   106   107    1
    71    90   102   am
    72    90    89    1
    73    82    77   am
    74    82    83    1
    75    79    80    1
    76    46    50   am
    77    93    92    1
    78    77    78    2
    79   104   105    2
    80    88    89    1
    81    88    84   am
    82   117   120    1
    83   117   116    1
    84   107   108    1
    85    83    84    1
    86    31    30    2
    87   108   112   am
    88    89    92    1
    89   115   114    2
    90   120   121    1
    91    84    85    2
    92   116   114   am
    93    50    51    1
    94    30    29    1
    95   114   113    1
    96   112   113    1
    97    51    54    1
    98    51    52    1
    99    32    29    1
   100    32    33    1
   101    54    55    1
   102    29    28    1
   103   121    55    1
   104    53    52    2
   105    52    56   am
   106    70    71    1
   107    70    69    1
   108    70    73    1
   109    34    33    1
   110    33    35    1
   111    71    72    2
   112    26    24   ar
   113    26    27   ar
   114    74    73    1
   115    56    57    1
   116    24    23   ar
   117    27    25   ar
   118    67    68    2
   119    67    66    1
   120    57    58    1
   121    57    60    1
   122    59    58    2
   123    23    25   ar
   124    23    22    1
   125    58    65   am
   126    63    62    2
   127    65    66    1
   128    18    19    1
   129    14    15    1
   130    14    13    1
   131    22    19    1
   132    61    60    1
   133    61    62    1
   134    62    64   am
   135    19    20    1
   136    13    16    1
   137    13    12    1
   138    16    17    1
   139    20    21    2
   140    12     3   am
   141     4     3    2
   142     3     2    1
   143     2     1    1
   144     2     5    1
   145     9     7   ar
   146     9    11   ar
   147     7     6   ar
   148     5     6    1
   149     6     8   ar
   150    11    10   ar
   151     8    10   ar
