@<TRIPOS>MOLECULE
tmp/20gsB01.pdb
 92 87 0 0 0
SMALL
GASTEIGER

@<TRIPOS>ATOM
      1  N         20.1750   21.9960   -0.0510 N.3     6  TYR6       -0.1227
      2  CA        18.9020   21.9560    0.6330 C.3     6  TYR6        0.1736
      3  C         17.8640   22.7380   -0.1490 C.2     6  TYR6        0.2595
      4  O         18.1900   23.3900   -1.1250 O.2     6  TYR6       -0.2718
      5  CB        19.0860   22.5690    2.0210 C.3     6  TYR6        0.0548
      6  CG        17.9620   22.3070    2.9980 C.ar    6  TYR6       -0.0200
      7  CD1       17.6170   21.0050    3.3630 C.ar    6  TYR6       -0.0009
      8  CD2       17.2590   23.3610    3.5750 C.ar    6  TYR6       -0.0009
      9  CE1       16.6070   20.7620    4.2750 C.ar    6  TYR6        0.0417
     10  CE2       16.2380   23.1270    4.4930 C.ar    6  TYR6        0.0417
     11  CZ        15.9190   21.8280    4.8400 C.ar    6  TYR6        0.1957
     12  OH        14.9180   21.6030    5.7590 O.3     6  TYR6       -0.2866
     13  N         16.6130   22.6630    0.2920 N.am    7  PHE7       -0.1976
     14  CA        15.5170   23.3780   -0.3340 C.3     7  PHE7        0.1639
     15  C         15.6590   24.8630   -0.0300 C.2     7  PHE7        0.2290
     16  O         16.4520   25.2580    0.8200 O.2     7  PHE7       -0.2864
     17  CB        14.1970   22.8490    0.2100 C.3     7  PHE7        0.0560
     18  CG        14.0780   21.3500    0.1350 C.ar    7  PHE7       -0.0200
     19  CD1       13.6430   20.7300   -1.0370 C.ar    7  PHE7       -0.0042
     20  CD2       14.4240   20.5500    1.2220 C.ar    7  PHE7       -0.0042
     21  CE1       13.5590   19.3340   -1.1140 C.ar    7  PHE7       -0.0003
     22  CE2       14.3410   19.1530    1.1500 C.ar    7  PHE7       -0.0003
     23  CZ        13.9090   18.5490   -0.0180 C.ar    7  PHE7       -0.0000
     24  N         14.7030   26.9720    1.9400 N.3     9  VAL9       -0.1245
     25  CA        14.1190   27.2980    3.2500 C.3     9  VAL9        0.1561
     26  C         15.2050   27.2230    4.3260 C.2     9  VAL9        0.2260
     27  O         16.3190   26.7810    4.0730 O.2     9  VAL9       -0.2867
     28  CB        12.9610   26.3350    3.6470 C.3     9  VAL9        0.0252
     29  CG1       12.0090   26.1500    2.4940 C.3     9  VAL9        0.0019
     30  CG2       13.5070   25.0110    4.0790 C.3     9  VAL9        0.0019
     31  N         14.6420   25.8440    7.6910 N.3    11  GLY11      -0.1210
     32  CA        14.4390   24.5320    8.2840 C.3    11  GLY11       0.1956
     33  C         15.6200   23.9660    9.0540 C.2    11  GLY11       0.2611
     34  O         16.2090   24.6380    9.8940 O.2    11  GLY11      -0.2717
     35  N         15.9740   22.7240    8.7490 N.am   12  ARG12      -0.1979
     36  CA        17.0690   22.0460    9.4140 C.3    12  ARG12       0.1597
     37  C         18.4530   22.4850    8.9940 C.2    12  ARG12       0.2287
     38  O         19.4400   21.8500    9.3600 O.2    12  ARG12      -0.2864
     39  CB        16.9530   20.5500    9.1940 C.3    12  ARG12       0.0334
     40  CG        15.6060   19.9770    9.5610 C.3    12  ARG12       0.0492
     41  CD        15.7130   18.4790    9.6470 C.3    12  ARG12       0.2205
     42  NE        14.6980   17.8770   10.5100 N.pl3  12  ARG12      -0.0865
     43  CZ        14.9460   17.3730   11.7180 C.cat  12  ARG12       0.5346
     44  NH1       16.1780   17.4070   12.2130 N.pl3  12  ARG12       0.1354
     45  NH2       13.9590   16.8410   12.4290 N.pl3  12  ARG12       0.1354
     46  N         16.6380   12.0330    1.4860 N.3    50  GLN50      -0.1231
     47  CA        16.3060   13.3130    2.0990 C.3    50  GLN50       0.1698
     48  C         17.4600   14.2910    2.1540 C.2    50  GLN50       0.2592
     49  O         18.6280   13.9110    2.0970 O.2    50  GLN50      -0.2718
     50  CB        15.7670   13.0930    3.5170 C.3    50  GLN50       0.0381
     51  CG        14.2720   12.7690    3.5440 C.3    50  GLN50       0.0905
     52  CD        13.8490   12.1780    4.8560 C.2    50  GLN50       0.2608
     53  OE1       14.6160   12.1990    5.8230 O.2    50  GLN50      -0.2717
     54  NE2       12.6250   11.6350    4.9070 N.am   50  GLN50      -0.0878
     55  N         17.1030   15.5640    2.2580 N.am   51  LEU51      -0.1980
     56  CA        18.0660   16.6480    2.3450 C.3    51  LEU51       0.1596
     57  C         17.9240   17.1470    3.7810 C.2    51  LEU51       0.2287
     58  O         16.8980   16.9070    4.4200 O.2    51  LEU51      -0.2864
     59  CB        17.6950   17.7370    1.3340 C.3    51  LEU51       0.0297
     60  CG        18.0400   17.3510   -0.1070 C.3    51  LEU51       0.0022
     61  CD1       17.4310   18.3550   -1.0830 C.3    51  LEU51       0.0001
     62  CD2       19.5520   17.2990   -0.2600 C.3    51  LEU51       0.0001
     63  N         11.4640   18.0370   16.4430 N.3   100  CYS100     -0.1235
     64  CA        10.6730   16.9950   15.8290 C.3   100  CYS100      0.1677
     65  C          9.1810   17.2250   15.9910 C.2   100  CYS100      0.2270
     66  O          8.4180   17.0230   15.0480 O.2   100  CYS100     -0.2867
     67  CB        11.0420   15.6400   16.4000 C.3   100  CYS100      0.0956
     68  SG         9.8950   14.3610   15.8510 S.3   100  CYS100     -0.0801
     69  N          8.0550   20.3910   13.8690 N.3   103  ILE103     -0.1245
     70  CA         7.8760   20.0410   12.4690 C.3   103  ILE103      0.1561
     71  C          6.5580   19.3110   12.2650 C.2   103  ILE103      0.2260
     72  O          5.8840   19.5040   11.2600 O.2   103  ILE103     -0.2867
     73  CB         9.0600   19.1800   11.9600 C.3   103  ILE103      0.0252
     74  CG1       10.3280   20.0290   11.9120 C.3   103  ILE103      0.0019
     75  CG2        8.8050   18.7050   10.5440 C.3   103  ILE103      0.0019
     76  CD1       11.5830   19.2330   11.6820 C.3   103  ILE103      0.0001
     77  N          3.6710   20.7320    9.5760 N.3   107  TYR107     -0.1241
     78  CA         3.2510   19.9570    8.4090 C.3   107  TYR107      0.1605
     79  C          2.1230   18.9290    8.6170 C.2   107  TYR107      0.2264
     80  O          1.6690   18.3270    7.6470 O.2   107  TYR107     -0.2867
     81  CB         4.4650   19.2400    7.8080 C.3   107  TYR107      0.0534
     82  CG         5.6550   20.1200    7.4350 C.ar  107  TYR107     -0.0201
     83  CD1        5.7400   20.7290    6.1800 C.ar  107  TYR107     -0.0009
     84  CD2        6.7270   20.2780    8.3070 C.ar  107  TYR107     -0.0009
     85  CE1        6.8700   21.4690    5.8030 C.ar  107  TYR107      0.0417
     86  CE2        7.8620   21.0170    7.9420 C.ar  107  TYR107      0.0417
     87  CZ         7.9300   21.6070    6.6900 C.ar  107  TYR107      0.1957
     88  OH         9.0600   22.3250    6.3290 O.3   107  TYR107     -0.2866
     89  N          8.6460   24.6820    4.7980 N.3   204  GLY204     -0.1225
     90  CA         8.2090   24.4340    3.4430 C.3   204  GLY204      0.1811
     91  C          6.8420   24.9720    3.0730 C.2   204  GLY204      0.2280
     92  O          6.7220   25.7620    2.1380 O.2   204  GLY204     -0.2866
@<TRIPOS>BOND
     1     4     3    2
     2    21    19   ar
     3    21    23   ar
     4    61    60    1
     5    19    18   ar
     6    14    15    1
     7    14    17    1
     8    14    13    1
     9    62    60    1
    10     3    13   am
    11     3     2    1
    12    60    59    1
    13     1     2    1
    14    15    16    2
    15    23    22   ar
    16    18    17    1
    17    18    20   ar
    18     2     5    1
    19    22    20   ar
    20    59    56    1
    21    46    47    1
    22    24    25    1
    23     5     6    1
    24    49    48    2
    25    47    48    1
    26    47    50    1
    27    92    91    2
    28    48    55   am
    29    55    56    1
    30    56    57    1
    31    29    28    1
    32     6     7   ar
    33     6     8   ar
    34    91    90    1
    35    25    28    1
    36    25    26    1
    37     7     9   ar
    38    90    89    1
    39    50    51    1
    40    51    52    1
    41     8    10   ar
    42    28    30    1
    43    57    58    2
    44    27    26    2
    45     9    11   ar
    46    10    11   ar
    47    11    12    1
    48    52    54   am
    49    52    53    2
    50    85    83   ar
    51    85    87   ar
    52    83    82   ar
    53    88    87    1
    54    87    86   ar
    55    82    81    1
    56    82    84   ar
    57    80    79    2
    58    31    32    1
    59    81    78    1
    60    86    84   ar
    61    32    33    1
    62    78    79    1
    63    78    77    1
    64    35    33   am
    65    35    36    1
    66    37    38    2
    67    37    36    1
    68    33    34    2
    69    39    36    1
    70    39    40    1
    71    40    41    1
    72    41    42    1
    73    42    43    2
    74    75    73    1
    75    72    71    2
    76    76    74    1
    77    43    44    1
    78    43    45    1
    79    74    73    1
    80    73    70    1
    81    71    70    1
    82    70    69    1
    83    66    65    2
    84    64    65    1
    85    64    67    1
    86    64    63    1
    87    68    67    1
