@<TRIPOS>MOLECULE
tmp/25c8B00.pdb
 96 97 0 0 0
SMALL
GASTEIGER

@<TRIPOS>ATOM
      1  N         26.7610   -7.4460   -3.8720 N.3    35  HIS35      -0.1241
      2  CA        26.6550   -7.1540   -2.4510 C.3    35  HIS35       0.1621
      3  C         27.5020   -5.9830   -2.0290 C.2    35  HIS35       0.2264
      4  O         28.3610   -5.5080   -2.7730 O.2    35  HIS35      -0.2867
      5  CB        27.0870   -8.3450   -1.5750 C.3    35  HIS35       0.0745
      6  CG        26.5100   -9.6650   -1.9810 C.ar   35  HIS35       0.0817
      7  ND1       25.4520  -10.2500   -1.3190 N.ar   35  HIS35      -0.2268
      8  CD2       26.8900  -10.5470   -2.9350 C.ar   35  HIS35       0.1154
      9  CE1       25.2070  -11.4360   -1.8450 C.ar   35  HIS35       0.1986
     10  NE2       26.0650  -11.6390   -2.8280 N.ar   35  HIS35      -0.2212
     11  N         29.6830   -4.8530    1.5220 N.3    37  VAL37      -0.1245
     12  CA        30.2060   -5.2910    2.8130 C.3    37  VAL37       0.1561
     13  C         30.8480   -4.0820    3.4730 C.2    37  VAL37       0.2260
     14  O         31.4350   -3.2350    2.7960 O.2    37  VAL37      -0.2867
     15  CB        31.2660   -6.4110    2.6630 C.3    37  VAL37       0.0252
     16  CG1       31.7940   -6.8060    4.0230 C.3    37  VAL37       0.0019
     17  CG2       30.6620   -7.6160    1.9700 C.3    37  VAL37       0.0019
     18  N         28.3630   -8.0410    6.2670 N.3    47  TRP47      -0.1241
     19  CA        27.5860   -8.0350    5.0350 C.3    47  TRP47       0.1605
     20  C         26.3870   -7.1060    5.2580 C.2    47  TRP47       0.2264
     21  O         25.7190   -7.1890    6.2820 O.2    47  TRP47      -0.2867
     22  CB        27.1230   -9.4550    4.7230 C.3    47  TRP47       0.0550
     23  CG        26.1080   -9.5480    3.6490 C.ar   47  TRP47       0.0003
     24  CD1       26.3350   -9.5110    2.3130 C.ar   47  TRP47       0.0946
     25  CD2       24.6900   -9.7040    3.8170 C.ar   47  TRP47       0.0152
     26  NE1       25.1500   -9.6330    1.6310 N.ar   47  TRP47      -0.2442
     27  CE2       24.1250   -9.7530    2.5300 C.ar   47  TRP47       0.0810
     28  CE3       23.8460   -9.8060    4.9340 C.ar   47  TRP47       0.0012
     29  CZ2       22.7460   -9.9000    2.3180 C.ar   47  TRP47       0.0191
     30  CZ3       22.4720   -9.9500    4.7260 C.ar   47  TRP47       0.0001
     31  CH2       21.9400   -9.9960    3.4250 C.ar   47  TRP47       0.0015
     32  N         30.9550   -6.4320   -3.7010 N.3    97  ALA97      -0.1231
     33  CA        31.5170   -7.7170   -4.0620 C.3    97  ALA97       0.1694
     34  C         30.5510   -8.4730   -4.9310 C.2    97  ALA97       0.2592
     35  O         29.3370   -8.4070   -4.7290 O.2    97  ALA97      -0.2718
     36  CB        31.8040   -8.5260   -2.8000 C.3    97  ALA97       0.0304
     37  N         31.0950   -9.2000   -5.8950 N.am   98  ALA98      -0.1966
     38  CA        30.2800  -10.0080   -6.7850 C.3    98  ALA98       0.1728
     39  C         30.5250  -11.4890   -6.5130 C.2    98  ALA98       0.2616
     40  O         31.6380  -11.8920   -6.2050 O.2    98  ALA98      -0.2715
     41  CB        30.6160   -9.6870   -8.2490 C.3    98  ALA98       0.0334
     42  N         29.4690  -12.2850   -6.5970 N.am   99  ASP99      -0.1958
     43  CA        29.5800  -13.7350   -6.4430 C.3    99  ASP99       0.1825
     44  C         30.3460  -14.1120   -7.7030 C.2    99  ASP99       0.2464
     45  O         30.2380  -13.4220   -8.7160 O.2    99  ASP99      -0.2730
     46  CB        28.2020  -14.4020   -6.5200 C.3    99  ASP99       0.1450
     47  CG        27.4270  -14.3220   -5.2270 C.2    99  ASP99       0.3671
     48  OD1       27.9530  -13.7750   -4.2340 O.co2  99  ASP99      -0.2456
     49  OD2       26.2770  -14.8130   -5.2050 O.co2  99  ASP99      -0.2456
     50  N         31.1180  -15.2040   -7.6760 N.am  100  PRO100     -0.2727
     51  CA        31.8590  -15.5830   -8.8920 C.3   100  PRO100      0.1402
     52  C         31.0210  -15.4750  -10.1890 C.2   100  PRO100      0.2269
     53  O         30.0420  -16.1930  -10.3820 O.2   100  PRO100     -0.2865
     54  CB        32.2900  -17.0180   -8.6090 C.3   100  PRO100      0.0296
     55  CG        32.3590  -17.0870   -7.1310 C.3   100  PRO100      0.0237
     56  CD        31.3490  -16.1420   -6.5660 C.3   100  PRO100      0.0939
     57  N         35.2610  -21.3350  -12.7100 N.3   104  GLY104     -0.1210
     58  CA        36.7020  -21.3720  -12.7890 C.3   104  GLY104      0.1956
     59  C         37.3270  -20.2820  -11.9510 C.2   104  GLY104      0.2612
     60  O         38.5380  -20.2810  -11.7470 O.2   104  GLY104     -0.2717
     61  N         36.5330  -19.3310  -11.4760 N.am  105  HIS105     -0.1961
     62  CA        37.1300  -18.3130  -10.6330 C.3   105  HIS105      0.1787
     63  C         36.3500  -17.8920   -9.4060 C.2   105  HIS105      0.2621
     64  O         35.1620  -18.1700   -9.2730 O.2   105  HIS105     -0.2715
     65  CB        37.5230  -17.0680  -11.4270 C.3   105  HIS105      0.0785
     66  CG        38.6440  -16.3040  -10.7870 C.ar  105  HIS105      0.0821
     67  ND1       38.4490  -15.4600   -9.7120 N.ar  105  HIS105     -0.2267
     68  CD2       39.9810  -16.3370  -11.0000 C.ar  105  HIS105      0.1154
     69  CE1       39.6150  -15.0080   -9.2900 C.ar  105  HIS105      0.1986
     70  NE2       40.5610  -15.5250  -10.0540 N.ar  105  HIS105     -0.2212
     71  N         37.0620  -17.2210   -8.5080 N.am  106  GLY106     -0.1940
     72  CA        36.4920  -16.7590   -7.2700 C.3   106  GLY106      0.2014
     73  C         35.6410  -15.5270   -7.4210 C.2   106  GLY106      0.2638
     74  O         35.2150  -15.1670   -8.5260 O.2   106  GLY106     -0.2714
     75  N         35.3850  -14.8810   -6.2920 N.am  107  ASP107     -0.1971
     76  CA        34.5650  -13.6910   -6.2870 C.3   107  ASP107      0.1709
     77  C         35.3480  -12.4320   -6.6180 C.2   107  ASP107      0.2293
     78  O         36.5660  -12.4720   -6.8330 O.2   107  ASP107     -0.2864
     79  CB        33.8390  -13.5400   -4.9460 C.3   107  ASP107      0.1436
     80  CG        34.7820  -13.4800   -3.7460 C.2   107  ASP107      0.3671
     81  OD1       36.0190  -13.5440   -3.9000 O.co2 107  ASP107     -0.2456
     82  OD2       34.2620  -13.3620   -2.6200 O.co2 107  ASP107     -0.2456
     83  N         35.8610   -8.2660   -5.5060 N.3   109  TRP109     -0.1241
     84  CA        35.6890   -7.2010   -4.5340 C.3   109  TRP109      0.1605
     85  C         36.2380   -5.8930   -5.0990 C.2   109  TRP109      0.2264
     86  O         37.2580   -5.8930   -5.7920 O.2   109  TRP109     -0.2867
     87  CB        36.4520   -7.5240   -3.2520 C.3   109  TRP109      0.0550
     88  CG        35.8540   -8.5920   -2.4060 C.ar  109  TRP109      0.0003
     89  CD1       35.6680   -9.9020   -2.7430 C.ar  109  TRP109      0.0946
     90  CD2       35.4460   -8.4670   -1.0390 C.ar  109  TRP109      0.0152
     91  NE1       35.1750  -10.6020   -1.6690 N.ar  109  TRP109     -0.2442
     92  CE2       35.0300   -9.7440   -0.6090 C.ar  109  TRP109      0.0810
     93  CE3       35.3960   -7.3980   -0.1320 C.ar  109  TRP109      0.0012
     94  CZ2       34.5660   -9.9820    0.6920 C.ar  109  TRP109      0.0191
     95  CZ3       34.9370   -7.6350    1.1590 C.ar  109  TRP109      0.0001
     96  CH2       34.5280   -8.9160    1.5580 C.ar  109  TRP109      0.0015
@<TRIPOS>BOND
     1    58    57    1
     2    58    59    1
     3    59    60    2
     4    59    61   am
     5    61    62    1
     6    65    66    1
     7    65    62    1
     8    68    66   ar
     9    68    70   ar
    10    66    67   ar
    11    62    63    1
    12    53    52    2
    13    52    51    1
    14    70    69   ar
    15    67    69   ar
    16    63    64    2
    17    63    71   am
    18    51    54    1
    19    51    50    1
    20    45    44    2
    21    54    55    1
    22    74    73    2
    23    71    72    1
    24    41    38    1
    25    44    50   am
    26    44    43    1
    27    50    56    1
    28    73    72    1
    29    73    75   am
    30    55    56    1
    31    78    77    2
    32    38    39    1
    33    38    37    1
    34    77    76    1
    35    42    39   am
    36    42    43    1
    37    46    43    1
    38    46    47    1
    39    39    40    2
    40    75    76    1
    41    76    79    1
    42    37    34   am
    43    86    85    2
    44    83    84    1
    45    47    49   ar
    46    47    48   ar
    47    85    84    1
    48    79    80    1
    49    34    35    2
    50    34    33    1
    51    84    87    1
    52    33    32    1
    53    33    36    1
    54    81    80   ar
    55     1     2    1
    56    80    82   ar
    57    87    88    1
    58     8    10   ar
    59     8     6   ar
    60    10     9   ar
    61     4     3    2
    62    89    88   ar
    63    89    91   ar
    64     2     3    1
    65     2     5    1
    66    88    90   ar
    67     6     5    1
    68     6     7   ar
    69     9     7   ar
    70    91    92   ar
    71    90    92   ar
    72    90    93   ar
    73    92    94   ar
    74    93    95   ar
    75    94    96   ar
    76    95    96   ar
    77    11    12    1
    78    26    24   ar
    79    26    27   ar
    80    17    15    1
    81    24    23   ar
    82    29    27   ar
    83    29    31   ar
    84    27    25   ar
    85    15    12    1
    86    15    16    1
    87    14    13    2
    88    12    13    1
    89    31    30   ar
    90    23    25   ar
    91    23    22    1
    92    25    28   ar
    93    22    19    1
    94    30    28   ar
    95    19    20    1
    96    19    18    1
    97    20    21    2
