@<TRIPOS>MOLECULE
tmp/2a00A00.pdb
 128 115 0 0 0
SMALL
GASTEIGER

@<TRIPOS>ATOM
      1  N        115.3430   -5.3430   -2.8690 N.3     2  ARG2       -0.1245
      2  CA       114.6450   -4.7830   -1.6760 C.3     2  ARG2        0.1563
      3  C        113.3720   -5.5800   -1.3850 C.2     2  ARG2        0.2260
      4  O        112.6130   -5.9090   -2.2750 O.2     2  ARG2       -0.2867
      5  CB       114.3000   -3.3430   -2.0580 C.3     2  ARG2        0.0307
      6  CG       115.5900   -2.5440   -2.2540 C.3     2  ARG2        0.0489
      7  CD       115.2470   -1.0780   -2.5280 C.3     2  ARG2        0.2205
      8  NE       116.5420   -0.4430   -2.8980 N.pl3   2  ARG2       -0.0865
      9  CZ       117.0650   -0.6530   -4.0770 C.cat   2  ARG2        0.5346
     10  NH1      116.4560   -1.4220   -4.9400 N.pl3   2  ARG2        0.1354
     11  NH2      118.2000   -0.0930   -4.3950 N.pl3   2  ARG2        0.1354
     12  N        100.3280   -2.7530   -4.7070 N.3    26  SER26      -0.1217
     13  CA       101.5460   -3.3140   -5.3630 C.3    26  SER26       0.1889
     14  C        101.1480   -4.2820   -6.4800 C.2    26  SER26       0.2288
     15  O        101.9340   -4.5970   -7.3510 O.2    26  SER26      -0.2866
     16  CB       102.3050   -4.0410   -4.2510 C.3    26  SER26       0.2089
     17  OG       101.4800   -5.0600   -3.7080 O.3    26  SER26      -0.2183
     18  N        102.0130   -2.6720   -9.6880 N.3    29  ASP29      -0.1239
     19  CA       103.4450   -2.4250  -10.0270 C.3    29  ASP29       0.1674
     20  C        104.0740   -3.6930  -10.6120 C.2    29  ASP29       0.2266
     21  O        103.8340   -4.7890  -10.1440 O.2    29  ASP29      -0.2867
     22  CB       104.1140   -2.0350   -8.7040 C.3    29  ASP29       0.1410
     23  CG       104.3590   -3.2820   -7.8500 C.2    29  ASP29       0.3668
     24  OD1      105.0950   -4.1470   -8.2950 O.co2  29  ASP29      -0.2456
     25  OD2      103.8110   -3.3470   -6.7620 O.co2  29  ASP29      -0.2456
     26  N        107.2840   -4.1900  -10.7320 N.3    31  THR31      -0.1218
     27  CA       108.6410   -4.3520  -10.1350 C.3    31  THR31       0.1862
     28  C        108.6610   -5.5590   -9.1940 C.2    31  THR31       0.2287
     29  O        107.6860   -5.8410   -8.5250 O.2    31  THR31      -0.2866
     30  CB       108.8900   -3.0600   -9.3560 C.3    31  THR31       0.1770
     31  OG1      107.8250   -2.8490   -8.4400 O.3    31  THR31      -0.2211
     32  CG2      108.9720   -1.8830  -10.3290 C.3    31  THR31       0.0375
     33  N        110.1270   -5.8320   -6.4600 N.3    33  GLU33      -0.1231
     34  CA       109.9370   -5.3850   -5.0500 C.3    33  GLU33       0.1699
     35  C        108.4440   -5.2950   -4.7220 C.2    33  GLU33       0.2592
     36  O        108.0120   -5.6540   -3.6470 O.2    33  GLU33      -0.2718
     37  CB       110.5880   -4.0040   -4.9830 C.3    33  GLU33       0.0402
     38  CG       112.0920   -4.1370   -5.2310 C.3    33  GLU33       0.1161
     39  CD       112.7550   -2.7640   -5.1060 C.2    33  GLU33       0.3649
     40  OE1      112.0330   -1.7850   -5.0260 O.co2  33  GLU33      -0.2457
     41  OE2      113.9740   -2.7160   -5.0940 O.co2  33  GLU33      -0.2457
     42  N        107.6470   -4.8620   -5.6580 N.am   34  GLY34      -0.1957
     43  CA       106.1780   -4.8030   -5.4140 C.3    34  GLY34       0.1869
     44  C        105.6600   -6.2020   -5.0800 C.2    34  GLY34       0.2309
     45  O        104.7660   -6.3670   -4.2740 O.2    34  GLY34      -0.2863
     46  N        106.5790   -6.8860   -1.2590 N.3    37  ILE37      -0.1245
     47  CA       105.5370   -6.3830   -0.3180 C.3    37  ILE37       0.1561
     48  C        104.2900   -7.2840   -0.3380 C.2    37  ILE37       0.2260
     49  O        103.7890   -7.6790    0.6990 O.2    37  ILE37      -0.2867
     50  CB       105.2380   -4.9700   -0.8230 C.3    37  ILE37       0.0252
     51  CG1      106.3000   -4.0210   -0.2670 C.3    37  ILE37       0.0019
     52  CG2      103.8510   -4.5140   -0.3680 C.3    37  ILE37       0.0019
     53  CD1      106.2180   -2.6770   -0.9840 C.3    37  ILE37       0.0001
     54  N        103.7290    1.3150  -11.5890 N.3    62  PHE62      -0.1241
     55  CA       104.7930    1.9010  -10.7220 C.3    62  PHE62       0.1605
     56  C        105.8920    2.5160  -11.5920 C.2    62  PHE62       0.2264
     57  O        106.5330    1.8390  -12.3710 O.2    62  PHE62      -0.2867
     58  CB       105.3340    0.7010   -9.9340 C.3    62  PHE62       0.0534
     59  CG       106.4690    1.1230   -9.0220 C.ar   62  PHE62      -0.0203
     60  CD1      106.7530    2.4820   -8.8150 C.ar   62  PHE62      -0.0042
     61  CD2      107.2500    0.1440   -8.3910 C.ar   62  PHE62      -0.0042
     62  CE1      107.8130    2.8580   -7.9800 C.ar   62  PHE62      -0.0003
     63  CE2      108.3110    0.5210   -7.5580 C.ar   62  PHE62      -0.0003
     64  CZ       108.5920    1.8780   -7.3530 C.ar   62  PHE62      -0.0000
     65  N        109.6260    4.5790  -11.6710 N.3    64  ALA64      -0.1245
     66  CA       110.7910    4.8610  -10.7840 C.3    64  ALA64       0.1562
     67  C        111.0300    6.3700  -10.6780 C.2    64  ALA64       0.2260
     68  O        111.5610    6.8540   -9.6970 O.2    64  ALA64      -0.2867
     69  CB       111.9780    4.1780  -11.4630 C.3    64  ALA64       0.0290
     70  N        108.8960    7.1590   -8.2270 N.3    67  ARG67      -0.1245
     71  CA       109.0240    6.1040   -7.1820 C.3    67  ARG67       0.1563
     72  C        107.6560    5.8340   -6.5550 C.2    67  ARG67       0.2260
     73  O        107.4810    5.9550   -5.3590 O.2    67  ARG67      -0.2867
     74  CB       109.9790    6.6820   -6.1340 C.3    67  ARG67       0.0307
     75  CG       111.1600    7.3580   -6.8300 C.3    67  ARG67       0.0489
     76  CD       112.2220    7.7280   -5.7930 C.3    67  ARG67       0.2205
     77  NE       113.2280    8.5310   -6.5420 N.pl3  67  ARG67      -0.0865
     78  CZ       114.1290    9.2250   -5.8980 C.cat  67  ARG67       0.5346
     79  NH1      114.1530    9.2210   -4.5920 N.pl3  67  ARG67       0.1354
     80  NH2      115.0070    9.9250   -6.5620 N.pl3  67  ARG67       0.1354
     81  N        103.6600    3.6370   -6.9350 N.3    69  SER69      -0.1217
     82  CA       102.6770    2.7580   -7.6170 C.3    69  SER69       0.1889
     83  C        101.4180    2.7120   -6.7580 C.2    69  SER69       0.2288
     84  O        101.4180    3.1800   -5.6420 O.2    69  SER69      -0.2866
     85  CB       103.3430    1.3860   -7.6720 C.3    69  SER69       0.2089
     86  OG       103.2590    0.7720   -6.3930 O.3    69  SER69      -0.2183
     87  N        101.4300    4.1780   -2.9930 N.3    80  LYS80      -0.1231
     88  CA       102.6310    3.9160   -2.1480 C.3    80  LYS80       0.1693
     89  C        103.8920    4.2780   -2.9320 C.2    80  LYS80       0.2593
     90  O        103.9580    4.0910   -4.1260 O.2    80  LYS80      -0.2718
     91  CB       102.5970    2.4160   -1.8660 C.3    80  LYS80       0.0285
     92  CG       103.6160    2.0720   -0.7790 C.3    80  LYS80       0.0035
     93  CD       104.9510    1.7230   -1.4330 C.3    80  LYS80       0.0206
     94  CE       104.7870    0.4570   -2.2760 C.3    80  LYS80       0.1093
     95  NZ       106.1350   -0.1720   -2.2790 N.3    80  LYS80      -0.1314
     96  N        104.8890    4.8010   -2.2800 N.am   81  GLY81      -0.1942
     97  CA       106.1320    5.1750   -3.0180 C.3    81  GLY81       0.2014
     98  C        107.1440    5.8060   -2.0640 C.2    81  GLY81       0.2639
     99  O        107.1570    5.5230   -0.8830 O.2    81  GLY81      -0.2714
    100  N        108.0210    6.6270   -2.5780 N.am   82  SER82      -0.1949
    101  CA       109.0670    7.2340   -1.7090 C.3    82  SER82       0.1924
    102  C        108.4480    8.2630   -0.7610 C.2    82  SER82       0.2314
    103  O        107.3610    8.7580   -0.9870 O.2    82  SER82      -0.2863
    104  CB       110.0620    7.8960   -2.6640 C.3    82  SER82       0.2116
    105  OG       110.5270    6.9310   -3.5990 O.3    82  SER82      -0.2180
    106  N        114.5870    0.5910    4.3400 N.3   114  THR114     -0.1218
    107  CA       114.0860    1.6530    3.4240 C.3   114  THR114      0.1862
    108  C        112.5980    1.8670    3.6750 C.2   114  THR114      0.2287
    109  O        111.7930    1.0050    3.3850 O.2   114  THR114     -0.2866
    110  CB       114.3090    1.1180    2.0070 C.3   114  THR114      0.1770
    111  OG1      115.6850    1.2310    1.6710 O.3   114  THR114     -0.2211
    112  CG2      113.4680    1.9280    1.0110 C.3   114  THR114      0.0375
    113  N        109.1970    2.9430    2.9090 N.3   116  LEU116     -0.1245
    114  CA       108.2170    3.4450    1.9140 C.3   116  LEU116      0.1561
    115  C        107.0240    4.0250    2.6650 C.2   116  LEU116      0.2260
    116  O        106.7780    3.6800    3.7980 O.2   116  LEU116     -0.2867
    117  CB       107.7820    2.2280    1.0980 C.3   116  LEU116      0.0270
    118  CG       108.9720    1.6570    0.3330 C.3   116  LEU116      0.0019
    119  CD1      108.4940    0.4960   -0.5410 C.3   116  LEU116      0.0001
    120  CD2      109.5720    2.7460   -0.5590 C.3   116  LEU116      0.0001
    121  N        111.6260   -1.7750    4.7320 N.3   130  LEU130     -0.1245
    122  CA       112.0860   -2.9170    3.8910 C.3   130  LEU130      0.1561
    123  C        113.5070   -3.3290    4.2760 C.2   130  LEU130      0.2260
    124  O        114.3780   -2.4960    4.4270 O.2   130  LEU130     -0.2867
    125  CB       112.0670   -2.3890    2.4570 C.3   130  LEU130      0.0270
    126  CG       110.6500   -2.4650    1.8800 C.3   130  LEU130      0.0019
    127  CD1      109.6320   -1.9890    2.9210 C.3   130  LEU130      0.0001
    128  CD2      110.5610   -1.5700    0.6420 C.3   130  LEU130      0.0001
@<TRIPOS>BOND
     1    57    56    2
     2    65    66    1
     3    56    55    1
     4    54    55    1
     5    69    66    1
     6    66    67    1
     7    26    27    1
     8    55    58    1
     9    67    68    2
    10    20    21    2
    11    20    19    1
    12    32    30    1
    13    27    30    1
    14    27    28    1
    15    19    18    1
    16    19    22    1
    17    58    59    1
    18    30    31    1
    19    28    29    2
    20    59    60   ar
    21    59    61   ar
    22    60    62   ar
    23    22    23    1
    24    61    63   ar
    25    24    23   ar
    26    70    71    1
    27    62    64   ar
    28    23    25   ar
    29    85    82    1
    30    85    86    1
    31    82    81    1
    32    82    83    1
    33    63    64   ar
    34    15    14    2
    35    71    72    1
    36    71    74    1
    37    75    74    1
    38    75    76    1
    39    83    84    2
    40    80    78    1
    41    72    73    2
    42    77    78    2
    43    77    76    1
    44    14    13    1
    45    33    34    1
    46    78    79    1
    47    42    43    1
    48    42    35   am
    49    43    44    1
    50    13    12    1
    51    13    16    1
    52    38    39    1
    53    38    37    1
    54    39    41   ar
    55    39    40   ar
    56    44    45    2
    57    34    37    1
    58    34    35    1
    59    10     9    1
    60    35    36    2
    61    11     9    1
    62    16    17    1
    63    90    89    2
    64     9     8    2
    65   105   104    1
    66    97    96    1
    67    97    98    1
    68    87    88    1
    69    89    96   am
    70    89    88    1
    71     8     7    1
    72     1     2    1
    73   104   101    1
    74   100    98   am
    75   100   101    1
    76     7     6    1
    77    95    94    1
    78    94    93    1
    79     4     3    2
    80     6     5    1
    81    88    91    1
    82    98    99    2
    83     5     2    1
    84    91    92    1
    85   101   102    1
    86     2     3    1
    87    93    92    1
    88    46    47    1
    89   103   102    2
    90    53    51    1
    91    50    52    1
    92    50    47    1
    93    50    51    1
    94   120   118    1
    95   119   118    1
    96    48    47    1
    97    48    49    2
    98   118   117    1
    99   128   126    1
   100   112   110    1
   101   117   114    1
   102   111   110    1
   103   126   125    1
   104   126   127    1
   105   114   115    1
   106   114   113    1
   107   110   107    1
   108   125   122    1
   109   115   116    2
   110   109   108    2
   111   107   108    1
   112   107   106    1
   113   122   123    1
   114   122   121    1
   115   123   124    2
