@<TRIPOS>MOLECULE
tmp/2a06M06.pdb
 89 86 0 0 0
SMALL
GASTEIGER

@<TRIPOS>ATOM
      1  N         39.0650   70.5790  105.6810 N.3    19  SER19      -0.1202
      2  CA        38.6100   69.2930  105.1520 C.3    19  SER19       0.2020
      3  C         38.6200   69.2300  103.6430 C.2    19  SER19       0.2619
      4  O         39.1270   70.1130  102.9700 O.2    19  SER19      -0.2717
      5  CB        37.1900   69.0320  105.6260 C.3    19  SER19       0.2103
      6  OG        36.3220   70.0320  105.0870 O.3    19  SER19      -0.2182
      7  N         38.0200   68.1740  103.1200 N.am   20  SER20      -0.1937
      8  CA        37.9480   67.9660  101.6850 C.3    20  SER20       0.2055
      9  C         37.1920   69.0660  100.9580 C.2    20  SER20       0.2643
     10  O         37.4200   69.2710   99.7690 O.2    20  SER20      -0.2714
     11  CB        37.2970   66.6130  101.3820 C.3    20  SER20       0.2130
     12  OG        38.1860   65.5460  101.7160 O.3    20  SER20      -0.2179
     13  N         36.2960   69.7680  101.6560 N.am   21  TRP21      -0.1973
     14  CA        35.5560   70.8290  100.9990 C.3    21  TRP21       0.1640
     15  C         36.4880   71.9640  100.5690 C.2    21  TRP21       0.2290
     16  O         36.1040   72.7940   99.7340 O.2    21  TRP21      -0.2864
     17  CB        34.4280   71.3600  101.8970 C.3    21  TRP21       0.0576
     18  CG        33.3550   70.3360  102.1250 C.ar   21  TRP21       0.0006
     19  CD1       33.1190   69.6340  103.2730 C.ar   21  TRP21       0.0946
     20  CD2       32.4360   69.8320  101.1520 C.ar   21  TRP21       0.0152
     21  NE1       32.1140   68.7170  103.0720 N.ar   21  TRP21      -0.2442
     22  CE2       31.6780   68.8140  101.7790 C.ar   21  TRP21       0.0810
     23  CE3       32.1820   70.1330   99.8080 C.ar   21  TRP21       0.0012
     24  CZ2       30.6790   68.0920  101.1060 C.ar   21  TRP21       0.0191
     25  CZ3       31.1890   69.4100   99.1350 C.ar   21  TRP21       0.0001
     26  CH2       30.4500   68.4010   99.7900 C.ar   21  TRP21       0.0015
     27  N         38.2000   72.0440   96.5200 N.3    24  PHE24      -0.1241
     28  CA        37.5650   72.5430   95.3150 C.3    24  PHE24       0.1605
     29  C         38.1730   73.7660   94.6760 C.2    24  PHE24       0.2264
     30  O         38.0310   73.9700   93.4580 O.2    24  PHE24      -0.2867
     31  CB        36.0640   72.6920   95.5750 C.3    24  PHE24       0.0534
     32  CG        35.3680   71.3620   95.6890 C.ar   24  PHE24      -0.0203
     33  CD1       35.0940   70.6060   94.5440 C.ar   24  PHE24      -0.0042
     34  CD2       35.0940   70.8060   96.9340 C.ar   24  PHE24      -0.0042
     35  CE1       34.5630   69.3170   94.6360 C.ar   24  PHE24      -0.0003
     36  CE2       34.5580   69.5040   97.0440 C.ar   24  PHE24      -0.0003
     37  CZ        34.2950   68.7640   95.8930 C.ar   24  PHE24      -0.0000
     38  N         30.4130   71.4120   88.6540 N.3    83  ILE83      -0.1245
     39  CA        30.2030   70.6140   89.8640 C.3    83  ILE83       0.1561
     40  C         31.0940   71.1750   90.9540 C.2    83  ILE83       0.2260
     41  O         30.6540   71.3490   92.0860 O.2    83  ILE83      -0.2867
     42  CB        30.5530   69.1330   89.6350 C.3    83  ILE83       0.0252
     43  CG1       29.4380   68.4800   88.7950 C.3    83  ILE83       0.0019
     44  CG2       30.7610   68.4300   90.9800 C.3    83  ILE83       0.0019
     45  CD1       29.7740   67.0990   88.2700 C.3    83  ILE83       0.0001
     46  N         30.1100   73.1820   94.5170 N.3    87  MET87      -0.1245
     47  CA        30.6050   72.6390   95.7910 C.3    87  MET87       0.1570
     48  C         31.3520   73.7620   96.5090 C.2    87  MET87       0.2261
     49  O         31.1690   73.9680   97.7080 O.2    87  MET87      -0.2867
     50  CB        31.6070   71.4920   95.5740 C.3    87  MET87       0.0387
     51  CG        31.1230   70.3030   94.7800 C.3    87  MET87       0.0595
     52  SD        29.9420   69.2910   95.6660 S.3    87  MET87      -0.1393
     53  CE        28.4370   70.1970   95.3400 C.3    87  MET87       0.0692
     54  N         30.3240   77.4460  105.6570 N.3    95  TYR95      -0.1241
     55  CA        31.3660   77.8420  106.6000 C.3    95  TYR95       0.1605
     56  C         31.5540   79.3390  106.8750 C.2    95  TYR95       0.2264
     57  O         32.4190   79.7280  107.6600 O.2    95  TYR95      -0.2867
     58  CB        32.6820   77.1870  106.1730 C.3    95  TYR95       0.0534
     59  CG        32.5820   75.6820  106.3220 C.ar   95  TYR95      -0.0201
     60  CD1       32.5050   75.1000  107.5870 C.ar   95  TYR95      -0.0009
     61  CD2       32.4670   74.8500  105.2100 C.ar   95  TYR95      -0.0009
     62  CE1       32.3120   73.7370  107.7490 C.ar   95  TYR95       0.0417
     63  CE2       32.2670   73.4780  105.3640 C.ar   95  TYR95       0.0417
     64  CZ        32.1890   72.9330  106.6380 C.ar   95  TYR95       0.1957
     65  OH        31.9600   71.5950  106.8190 O.3    95  TYR95      -0.2866
     66  N         36.6940   74.6310  108.9100 N.3   199  PRO199     -0.2116
     67  CA        35.3830   74.1200  109.3530 C.3   199  PRO199      0.1372
     68  C         34.7920   74.7110  110.6420 C.2   199  PRO199      0.2244
     69  O         33.5700   74.8670  110.7260 O.2   199  PRO199     -0.2868
     70  CB        35.5990   72.6140  109.4650 C.3   199  PRO199      0.0268
     71  CG        36.6750   72.3370  108.3980 C.3   199  PRO199      0.0207
     72  CD        37.6230   73.5270  108.5670 C.3   199  PRO199      0.0892
     73  N         47.4410   66.4960   99.6050 N.3   218  LYS218     -0.1245
     74  CA        45.9940   66.4080   99.7040 C.3   218  LYS218      0.1561
     75  C         45.3810   66.9360   98.3890 C.2   218  LYS218      0.2260
     76  O         44.3630   66.4190   97.9230 O.2   218  LYS218     -0.2867
     77  CB        45.5380   67.2420  100.9060 C.3   218  LYS218      0.0271
     78  CG        44.1090   67.0260  101.3870 C.3   218  LYS218      0.0035
     79  CD        44.0870   66.8570  102.9000 C.3   218  LYS218      0.0206
     80  CE        42.8680   67.5230  103.5610 C.3   218  LYS218      0.1093
     81  NZ        41.5350   67.1080  103.0210 N.3   218  LYS218     -0.1314
     82  N         28.9570   74.9470  111.4340 N.3   307  MET307     -0.1245
     83  CA        29.3280   73.7600  112.1910 C.3   307  MET307      0.1570
     84  C         28.6160   73.7070  113.5520 C.2   307  MET307      0.2261
     85  O         28.0610   72.6710  113.9450 O.2   307  MET307     -0.2867
     86  CB        30.8430   73.7110  112.4090 C.3   307  MET307      0.0387
     87  CG        31.2780   72.5980  113.3660 C.3   307  MET307      0.0595
     88  SD        33.0690   72.3590  113.5510 S.3   307  MET307     -0.1393
     89  CE        33.4320   71.5080  112.0360 C.3   307  MET307      0.0692
@<TRIPOS>BOND
     1    45    43    1
     2    38    39    1
     3    43    42    1
     4    42    39    1
     5    42    44    1
     6    39    40    1
     7    40    41    2
     8    30    29    2
     9    46    47    1
    10    33    35   ar
    11    33    32   ar
    12    35    37   ar
    13    29    28    1
    14    51    50    1
    15    51    52    1
    16    28    31    1
    17    28    27    1
    18    53    52    1
    19    50    47    1
    20    31    32    1
    21    32    34   ar
    22    47    48    1
    23    37    36   ar
    24    48    49    2
    25    34    36   ar
    26    76    75    2
    27    75    74    1
    28    25    26   ar
    29    25    23   ar
    30    73    74    1
    31    74    77    1
    32    16    15    2
    33    10     9    2
    34    26    24   ar
    35    23    20   ar
    36    15    14    1
    37    77    78    1
    38     9    13   am
    39     9     8    1
    40    14    13    1
    41    14    17    1
    42    24    22   ar
    43    20    22   ar
    44    20    18   ar
    45    11     8    1
    46    11    12    1
    47    78    79    1
    48     8     7    1
    49    22    21   ar
    50    17    18    1
    51    18    19   ar
    52    79    80    1
    53     4     3    2
    54    81    80    1
    55    21    19   ar
    56     7     3   am
    57     3     2    1
    58     6     5    1
    59     2     5    1
    60     2     1    1
    61    61    63   ar
    62    61    59   ar
    63    63    64   ar
    64    54    55    1
    65    58    59    1
    66    58    55    1
    67    59    60   ar
    68    55    56    1
    69    64    65    1
    70    64    62   ar
    71    56    57    2
    72    60    62   ar
    73    71    72    1
    74    71    70    1
    75    72    66    1
    76    66    67    1
    77    67    70    1
    78    67    68    1
    79    68    69    2
    80    82    83    1
    81    89    88    1
    82    83    86    1
    83    83    84    1
    84    86    87    1
    85    87    88    1
    86    84    85    2
