@<TRIPOS>MOLECULE
tmp/2a06M05.pdb
 105 96 0 0 0
SMALL
GASTEIGER

@<TRIPOS>ATOM
      1  N         38.0200   68.1740  103.1200 N.3    20  SER20      -0.1217
      2  CA        37.9480   67.9660  101.6850 C.3    20  SER20       0.1889
      3  C         37.1920   69.0660  100.9580 C.2    20  SER20       0.2288
      4  O         37.4200   69.2710   99.7690 O.2    20  SER20      -0.2866
      5  CB        37.2970   66.6130  101.3820 C.3    20  SER20       0.2089
      6  OG        38.1860   65.5460  101.7160 O.3    20  SER20      -0.2183
      7  N         39.2400   71.4630   98.9890 N.3    23  ASN23      -0.1225
      8  CA        39.9770   71.0070   97.8080 C.3    23  ASN23       0.1785
      9  C         39.4480   71.5860   96.4980 C.2    23  ASN23       0.2597
     10  O         40.1590   71.6020   95.4850 O.2    23  ASN23      -0.2718
     11  CB        39.8930   69.4890   97.6650 C.3    23  ASN23       0.1169
     12  CG        40.9180   68.7760   98.4770 C.2    23  ASN23       0.2627
     13  OD1       40.7900   68.6590   99.7030 O.2    23  ASN23      -0.2716
     14  ND2       41.9630   68.2920   97.8080 N.am   23  ASN23      -0.0877
     15  N         38.2000   72.0440   96.5200 N.am   24  PHE24      -0.1976
     16  CA        37.5650   72.5430   95.3150 C.3    24  PHE24       0.1639
     17  C         38.1730   73.7660   94.6760 C.2    24  PHE24       0.2290
     18  O         38.0310   73.9700   93.4580 O.2    24  PHE24      -0.2864
     19  CB        36.0640   72.6920   95.5750 C.3    24  PHE24       0.0560
     20  CG        35.3680   71.3620   95.6890 C.ar   24  PHE24      -0.0200
     21  CD1       35.0940   70.6060   94.5440 C.ar   24  PHE24      -0.0042
     22  CD2       35.0940   70.8060   96.9340 C.ar   24  PHE24      -0.0042
     23  CE1       34.5630   69.3170   94.6360 C.ar   24  PHE24      -0.0003
     24  CE2       34.5580   69.5040   97.0440 C.ar   24  PHE24      -0.0003
     25  CZ        34.2950   68.7640   95.8930 C.ar   24  PHE24      -0.0000
     26  N         40.8470   72.4140   92.6350 N.3    27  LEU27      -0.1245
     27  CA        40.2100   71.6510   91.5590 C.3    27  LEU27       0.1561
     28  C         39.6390   72.5900   90.4960 C.2    27  LEU27       0.2260
     29  O         39.6350   72.2600   89.3030 O.2    27  LEU27      -0.2867
     30  CB        39.1030   70.7300   92.1100 C.3    27  LEU27       0.0270
     31  CG        39.6000   69.6520   93.0830 C.3    27  LEU27       0.0019
     32  CD1       38.4550   68.7000   93.4220 C.3    27  LEU27       0.0001
     33  CD2       40.7650   68.8760   92.4530 C.3    27  LEU27       0.0001
     34  N         32.4540   69.2680   84.9090 N.3    80  MET80      -0.1245
     35  CA        33.2220   69.0950   86.1400 C.3    80  MET80       0.1570
     36  C         33.4950   70.4690   86.7540 C.2    80  MET80       0.2261
     37  O         33.4870   70.6410   87.9650 O.2    80  MET80      -0.2867
     38  CB        34.5560   68.3920   85.8590 C.3    80  MET80       0.0387
     39  CG        34.4070   66.9660   85.3500 C.3    80  MET80       0.0595
     40  SD        33.3170   65.9600   86.4020 S.3    80  MET80      -0.1393
     41  CE        34.1120   66.1550   88.0070 C.3    80  MET80       0.0692
     42  N         30.4130   71.4120   88.6540 N.3    83  ILE83      -0.1231
     43  CA        30.2030   70.6140   89.8640 C.3    83  ILE83       0.1692
     44  C         31.0940   71.1750   90.9540 C.2    83  ILE83       0.2592
     45  O         30.6540   71.3490   92.0860 O.2    83  ILE83      -0.2718
     46  CB        30.5530   69.1330   89.6350 C.3    83  ILE83       0.0266
     47  CG1       29.4380   68.4800   88.7950 C.3    83  ILE83       0.0019
     48  CG2       30.7610   68.4300   90.9800 C.3    83  ILE83       0.0020
     49  CD1       29.7740   67.0990   88.2700 C.3    83  ILE83       0.0001
     50  N         32.3430   71.4630   90.5980 N.am   84  CYS84      -0.1970
     51  CA        33.3170   72.0270   91.5350 C.3    84  CYS84       0.1712
     52  C         32.8920   73.4260   91.9660 C.2    84  CYS84       0.2296
     53  O         32.9770   73.7670   93.1500 O.2    84  CYS84      -0.2864
     54  CB        34.7140   72.0690   90.9000 C.3    84  CYS84       0.0983
     55  SG        35.4310   70.4050   90.6320 S.3    84  CYS84      -0.0798
     56  N         30.1100   73.1820   94.5170 N.3    87  MET87      -0.1245
     57  CA        30.6050   72.6390   95.7910 C.3    87  MET87       0.1570
     58  C         31.3520   73.7620   96.5090 C.2    87  MET87       0.2261
     59  O         31.1690   73.9680   97.7080 O.2    87  MET87      -0.2867
     60  CB        31.6070   71.4920   95.5740 C.3    87  MET87       0.0387
     61  CG        31.1230   70.3030   94.7800 C.3    87  MET87       0.0595
     62  SD        29.9420   69.2910   95.6660 S.3    87  MET87      -0.1393
     63  CE        28.4370   70.1970   95.3400 C.3    87  MET87       0.0692
     64  N         47.4410   66.4960   99.6050 N.3   218  LYS218     -0.1245
     65  CA        45.9940   66.4080   99.7040 C.3   218  LYS218      0.1561
     66  C         45.3810   66.9360   98.3890 C.2   218  LYS218      0.2260
     67  O         44.3630   66.4190   97.9230 O.2   218  LYS218     -0.2867
     68  CB        45.5380   67.2420  100.9060 C.3   218  LYS218      0.0271
     69  CG        44.1090   67.0260  101.3870 C.3   218  LYS218      0.0035
     70  CD        44.0870   66.8570  102.9000 C.3   218  LYS218      0.0206
     71  CE        42.8680   67.5230  103.5610 C.3   218  LYS218      0.1093
     72  NZ        41.5350   67.1080  103.0210 N.3   218  LYS218     -0.1314
     73  N         45.8520   64.3000   95.5000 N.3   221  LEU221     -0.1231
     74  CA        44.8550   63.2530   95.6530 C.3   221  LEU221      0.1693
     75  C         43.5020   63.7630   95.1450 C.2   221  LEU221      0.2592
     76  O         42.8040   63.0640   94.3990 O.2   221  LEU221     -0.2718
     77  CB        44.7450   62.8450   97.1270 C.3   221  LEU221      0.0284
     78  CG        43.7310   61.7460   97.4610 C.3   221  LEU221      0.0019
     79  CD1       44.0090   60.5150   96.6270 C.3   221  LEU221      0.0001
     80  CD2       43.8260   61.4070   98.9400 C.3   221  LEU221      0.0001
     81  N         43.1290   64.9790   95.5480 N.am  222  GLY222     -0.1957
     82  CA        41.8780   65.5400   95.0770 C.3   222  GLY222      0.1869
     83  C         41.8820   65.6040   93.5530 C.2   222  GLY222      0.2309
     84  O         40.8840   65.2490   92.9060 O.2   222  GLY222     -0.2863
     85  N         41.2040   62.3310   91.8780 N.3   225  LEU225     -0.1231
     86  CA        39.7980   61.9290   91.9030 C.3   225  LEU225      0.1693
     87  C         39.0260   62.7640   90.8880 C.2   225  LEU225      0.2591
     88  O         38.0490   62.2890   90.3240 O.2   225  LEU225     -0.2718
     89  CB        39.2020   62.0870   93.3120 C.3   225  LEU225      0.0284
     90  CG        39.7460   61.1200   94.3750 C.3   225  LEU225      0.0019
     91  CD1       39.4250   61.6600   95.7600 C.3   225  LEU225      0.0001
     92  CD2       39.1360   59.7340   94.1910 C.3   225  LEU225      0.0001
     93  N         39.4650   64.0020   90.6510 N.am  226  LEU226     -0.1980
     94  CA        38.7990   64.8530   89.6610 C.3   226  LEU226      0.1596
     95  C         39.0310   64.2260   88.2850 C.2   226  LEU226      0.2287
     96  O         38.1140   64.1180   87.4750 O.2   226  LEU226     -0.2864
     97  CB        39.3760   66.2770   89.6460 C.3   226  LEU226      0.0297
     98  CG        38.7400   67.2060   88.5970 C.3   226  LEU226      0.0022
     99  CD1       37.2860   67.4600   88.9820 C.3   226  LEU226      0.0001
    100  CD2       39.4940   68.5340   88.5080 C.3   226  LEU226      0.0001
    101  N         36.8390   61.1300   87.9290 N.3   229  ALA229     -0.1245
    102  CA        35.4670   61.4750   87.5830 C.3   229  ALA229      0.1562
    103  C         35.3720   61.9480   86.1300 C.2   229  ALA229      0.2260
    104  O         34.4740   61.5190   85.3890 O.2   229  ALA229     -0.2867
    105  CB        34.9460   62.5450   88.5050 C.3   229  ALA229      0.0290
@<TRIPOS>BOND
     1    34    35    1
     2    39    38    1
     3    39    40    1
     4   104   103    2
     5    38    35    1
     6   103   102    1
     7    35    36    1
     8    40    41    1
     9    36    37    2
    10    96    95    2
    11   102   101    1
    12   102   105    1
    13    49    47    1
    14    95    94    1
    15   100    98    1
    16    98    99    1
    17    98    97    1
    18    42    43    1
    19    47    46    1
    20    29    28    2
    21    46    43    1
    22    46    48    1
    23    97    94    1
    24    94    93    1
    25    43    44    1
    26    88    87    2
    27    28    27    1
    28    50    44   am
    29    50    51    1
    30    55    54    1
    31    93    87   am
    32    87    86    1
    33    54    51    1
    34    44    45    2
    35    51    52    1
    36    27    30    1
    37    27    26    1
    38    85    86    1
    39    86    89    1
    40    52    53    2
    41    30    31    1
    42    33    31    1
    43    84    83    2
    44    31    32    1
    45    89    90    1
    46    18    17    2
    47    83    82    1
    48    92    90    1
    49    90    91    1
    50    76    75    2
    51    56    57    1
    52    21    23   ar
    53    21    20   ar
    54    23    25   ar
    55    17    16    1
    56    61    60    1
    57    61    62    1
    58    82    81    1
    59    75    81   am
    60    75    74    1
    61    16    19    1
    62    16    15    1
    63    63    62    1
    64    10     9    2
    65    73    74    1
    66    60    57    1
    67    19    20    1
    68    74    77    1
    69    20    22   ar
    70    57    58    1
    71    25    24   ar
    72     9    15   am
    73     9     8    1
    74    58    59    2
    75    79    78    1
    76    22    24   ar
    77    77    78    1
    78    78    80    1
    79    11     8    1
    80    11    12    1
    81     8     7    1
    82    14    12   am
    83    67    66    2
    84    66    65    1
    85    12    13    2
    86    64    65    1
    87    65    68    1
    88     4     3    2
    89    68    69    1
    90     3     2    1
    91     5     2    1
    92     5     6    1
    93    69    70    1
    94     2     1    1
    95    70    71    1
    96    72    71    1
