@<TRIPOS>MOLECULE
tmp/2a06M00.pdb
 90 90 0 0 0
SMALL
GASTEIGER

@<TRIPOS>ATOM
      1  N         33.5790   59.8850   82.7630 N.3   233  LEU233     -0.1245
      2  CA        32.5850   60.4660   81.8800 C.3   233  LEU233      0.1561
      3  C         33.0720   60.3760   80.4360 C.2   233  LEU233      0.2260
      4  O         32.4030   59.7980   79.5900 O.2   233  LEU233     -0.2867
      5  CB        32.3060   61.9210   82.2600 C.3   233  LEU233      0.0270
      6  CG        31.5150   62.1530   83.5590 C.3   233  LEU233      0.0019
      7  CD1       31.4650   63.6370   83.8370 C.3   233  LEU233      0.0001
      8  CD2       30.0950   61.5800   83.4540 C.3   233  LEU233      0.0001
      9  N         26.4970   61.4920   78.5260 N.3   240  LEU240     -0.1231
     10  CA        25.6130   61.4510   79.6740 C.3   240  LEU240      0.1693
     11  C         25.0890   62.8290   80.0580 C.2   240  LEU240      0.2592
     12  O         23.8800   63.0370   80.1620 O.2   240  LEU240     -0.2718
     13  CB        26.3360   60.8520   80.8740 C.3   240  LEU240      0.0284
     14  CG        25.4290   60.5980   82.0800 C.3   240  LEU240      0.0019
     15  CD1       24.3870   59.5100   81.7380 C.3   240  LEU240      0.0001
     16  CD2       26.2770   60.1710   83.2590 C.3   240  LEU240      0.0001
     17  N         26.0080   63.7700   80.2470 N.am  241  LEU241     -0.1966
     18  CA        25.6470   65.1080   80.6610 C.3   241  LEU241      0.1728
     19  C         25.3170   66.0490   79.5140 C.2   241  LEU241      0.2617
     20  O         25.0740   67.2190   79.7270 O.2   241  LEU241     -0.2715
     21  CB        26.7810   65.6800   81.5130 C.3   241  LEU241      0.0311
     22  CG        27.0950   64.8010   82.7270 C.3   241  LEU241      0.0022
     23  CD1       28.2450   65.3940   83.5360 C.3   241  LEU241      0.0001
     24  CD2       25.8420   64.6860   83.5800 C.3   241  LEU241      0.0001
     25  N         25.3250   65.5340   78.2960 N.am  242  GLY242     -0.1940
     26  CA        25.0220   66.3590   77.1430 C.3   242  GLY242      0.2014
     27  C         23.6060   66.1860   76.6160 C.2   242  GLY242      0.2639
     28  O         22.8390   65.3700   77.1150 O.2   242  GLY242     -0.2714
     29  N         23.2690   66.9550   75.5870 N.am  243  ASP243     -0.1957
     30  CA        21.9440   66.9280   74.9790 C.3   243  ASP243      0.1825
     31  C         21.9990   66.4000   73.5470 C.2   243  ASP243      0.2464
     32  O         22.6680   66.9820   72.6930 O.2   243  ASP243     -0.2730
     33  CB        21.3800   68.3440   74.9570 C.3   243  ASP243      0.1450
     34  CG        19.9060   68.3910   74.5940 C.2   243  ASP243      0.3671
     35  OD1       19.4750   67.7140   73.6310 O.co2 243  ASP243     -0.2456
     36  OD2       19.1760   69.1400   75.2770 O.co2 243  ASP243     -0.2456
     37  N         21.2810   65.3000   73.2590 N.am  244  PRO244     -0.2727
     38  CA        21.2470   64.7020   71.9110 C.3   244  PRO244      0.1402
     39  C         20.9490   65.7360   70.8070 C.2   244  PRO244      0.2269
     40  O         21.4580   65.6450   69.6810 O.2   244  PRO244     -0.2865
     41  CB        20.1240   63.6650   72.0200 C.3   244  PRO244      0.0296
     42  CG        20.1970   63.2350   73.4510 C.3   244  PRO244      0.0237
     43  CD        20.4740   64.5190   74.2170 C.3   244  PRO244      0.0939
     44  N         16.0110   72.0790   76.1670 N.3   260  LYS260     -0.1231
     45  CA        16.2690   72.3980   77.5580 C.3   260  LYS260      0.1678
     46  C         17.7240   72.7990   77.6960 C.2   260  LYS260      0.2434
     47  O         18.5640   72.4050   76.8980 O.2   260  LYS260     -0.2733
     48  CB        15.9220   71.2340   78.4900 C.3   260  LYS260      0.0284
     49  CG        16.8060   70.0230   78.4160 C.3   260  LYS260      0.0035
     50  CD        16.4470   69.1230   79.5810 C.3   260  LYS260      0.0206
     51  CE        17.3620   67.9240   79.7010 C.3   260  LYS260      0.1093
     52  NZ        16.9810   67.0670   80.8640 N.3   260  LYS260     -0.1314
     53  N         18.0300   73.6200   78.7000 N.am  261  PRO261     -0.2718
     54  CA        19.3970   74.0910   78.9380 C.3   261  PRO261      0.1535
     55  C         20.3400   72.9920   79.4050 C.2   261  PRO261      0.2598
     56  O         19.9200   71.8930   79.7700 O.2   261  PRO261     -0.2715
     57  CB        19.2270   75.1330   80.0470 C.3   261  PRO261      0.0310
     58  CG        17.7740   75.4480   80.0630 C.3   261  PRO261      0.0237
     59  CD        17.1070   74.1550   79.7070 C.3   261  PRO261      0.0939
     60  N         21.6190   73.3360   79.4040 N.am  262  GLU262     -0.1964
     61  CA        22.6890   72.4800   79.8900 C.3   262  GLU262      0.1733
     62  C         22.2960   72.2180   81.3550 C.2   262  GLU262      0.2616
     63  O         21.6990   73.0880   82.0070 O.2   262  GLU262     -0.2715
     64  CB        24.0240   73.2460   79.8130 C.3   262  GLU262      0.0429
     65  CG        24.4270   73.6950   78.4010 C.3   262  GLU262      0.1163
     66  CD        23.8200   75.0360   77.9910 C.2   262  GLU262      0.3649
     67  OE1       22.5810   75.1340   77.8630 O.co2 262  GLU262     -0.2457
     68  OE2       24.5890   76.0040   77.7920 O.co2 262  GLU262     -0.2457
     69  N         22.6350   71.0490   81.8880 N.am  263  TRP263     -0.1974
     70  CA        22.2080   70.7080   83.2500 C.3   263  TRP263      0.1640
     71  C         22.5680   71.7110   84.3370 C.2   263  TRP263      0.2290
     72  O         21.7640   71.9330   85.2570 O.2   263  TRP263     -0.2864
     73  CB        22.7110   69.3210   83.6560 C.3   263  TRP263      0.0576
     74  CG        24.1840   69.2500   83.9290 C.ar  263  TRP263      0.0006
     75  CD1       25.1640   68.8630   83.0610 C.ar  263  TRP263      0.0946
     76  CD2       24.8450   69.6020   85.1510 C.ar  263  TRP263      0.0152
     77  NE1       26.3930   68.9510   83.6660 N.ar  263  TRP263     -0.2442
     78  CE2       26.2290   69.4070   84.9470 C.ar  263  TRP263      0.0810
     79  CE3       24.4000   70.0660   86.3970 C.ar  263  TRP263      0.0012
     80  CZ2       27.1810   69.6630   85.9430 C.ar  263  TRP263      0.0191
     81  CZ3       25.3470   70.3220   87.3940 C.ar  263  TRP263      0.0001
     82  CH2       26.7270   70.1200   87.1550 C.ar  263  TRP263      0.0015
     83  N         19.9680   74.4150   84.6830 N.3   266  LEU266     -0.1245
     84  CA        18.5690   74.0420   84.9400 C.3   266  LEU266      0.1561
     85  C         17.8580   74.7110   86.1040 C.2   266  LEU266      0.2260
     86  O         16.6790   75.0630   85.9730 O.2   266  LEU266     -0.2867
     87  CB        18.4030   72.5200   85.0570 C.3   266  LEU266      0.0270
     88  CG        18.5540   71.7220   83.7500 C.3   266  LEU266      0.0019
     89  CD1       18.5320   70.2360   84.0750 C.3   266  LEU266      0.0001
     90  CD2       17.4570   72.0710   82.7530 C.3   266  LEU266      0.0001
@<TRIPOS>BOND
     1    40    39    2
     2    39    38    1
     3    38    41    1
     4    38    37    1
     5    41    42    1
     6    32    31    2
     7    37    31   am
     8    37    43    1
     9    42    43    1
    10    31    30    1
    11    35    34   ar
    12    34    33    1
    13    34    36   ar
    14    33    30    1
    15    30    29    1
    16    29    27   am
    17    44    45    1
    18    27    28    2
    19    27    26    1
    20    47    46    2
    21    26    25    1
    22    45    46    1
    23    45    48    1
    24    46    53   am
    25    68    66   ar
    26    67    66   ar
    27    66    65    1
    28    25    19   am
    29    65    64    1
    30    49    48    1
    31    49    50    1
    32     9    10    1
    33    53    54    1
    34    53    59    1
    35    54    55    1
    36    54    57    1
    37    60    55   am
    38    60    61    1
    39    55    56    2
    40    19    20    2
    41    19    18    1
    42    50    51    1
    43     4     3    2
    44    10    11    1
    45    10    13    1
    46    51    52    1
    47    59    58    1
    48    64    61    1
    49    61    62    1
    50    57    58    1
    51    11    12    2
    52    11    17   am
    53    17    18    1
    54     3     2    1
    55    18    21    1
    56    13    14    1
    57    62    69   am
    58    62    63    2
    59    21    22    1
    60    15    14    1
    61     2     5    1
    62     2     1    1
    63    69    70    1
    64    14    16    1
    65     5     6    1
    66    22    23    1
    67    22    24    1
    68    90    88    1
    69    75    77   ar
    70    75    74   ar
    71    70    73    1
    72    70    71    1
    73     8     6    1
    74     6     7    1
    75    73    74    1
    76    77    78   ar
    77    88    89    1
    78    88    87    1
    79    74    76   ar
    80    71    72    2
    81    83    84    1
    82    84    87    1
    83    84    85    1
    84    78    76   ar
    85    78    80   ar
    86    76    79   ar
    87    80    82   ar
    88    86    85    2
    89    79    81   ar
    90    82    81   ar
