@<TRIPOS>MOLECULE
tmp/2a06B01.pdb
 79 71 0 0 0
SMALL
GASTEIGER

@<TRIPOS>ATOM
      1  N         47.4540  120.7070  144.4050 N.3    35  PHE35      -0.1241
      2  CA        48.8180  120.4190  144.8310 C.3    35  PHE35       0.1605
      3  C         48.8000  119.2840  145.8420 C.2    35  PHE35       0.2264
      4  O         47.9990  119.2880  146.7680 O.2    35  PHE35      -0.2867
      5  CB        49.4720  121.6550  145.4510 C.3    35  PHE35       0.0534
      6  CG        49.7730  122.7390  144.4570 C.ar   35  PHE35      -0.0203
      7  CD1       48.7430  123.4220  143.8130 C.ar   35  PHE35      -0.0042
      8  CD2       51.0850  123.0700  144.1580 C.ar   35  PHE35      -0.0042
      9  CE1       49.0120  124.4090  142.8920 C.ar   35  PHE35      -0.0003
     10  CE2       51.3720  124.0700  143.2240 C.ar   35  PHE35      -0.0003
     11  CZ        50.3360  124.7380  142.5910 C.ar   35  PHE35      -0.0000
     12  N         43.4030  123.3350  129.1770 N.3    80  LYS80      -0.1245
     13  CA        44.6440  122.6290  129.3390 C.3    80  LYS80       0.1561
     14  C         44.7060  121.8790  130.6500 C.2    80  LYS80       0.2260
     15  O         44.1310  122.3080  131.6510 O.2    80  LYS80      -0.2867
     16  CB        45.7860  123.6470  129.2410 C.3    80  LYS80       0.0271
     17  CG        47.1310  123.1770  129.7160 C.3    80  LYS80       0.0035
     18  CD        48.1060  124.3400  129.6400 C.3    80  LYS80       0.0206
     19  CE        49.5490  123.9240  129.8460 C.3    80  LYS80       0.1093
     20  NZ        50.4470  125.1220  129.7200 N.3    80  LYS80      -0.1314
     21  N         47.7890  119.9360  132.9330 N.3    82  SER82      -0.1217
     22  CA        49.1930  119.5930  133.0010 C.3    82  SER82       0.1889
     23  C         49.5610  119.0820  134.3860 C.2    82  SER82       0.2288
     24  O         48.8770  119.3590  135.3650 O.2    82  SER82      -0.2866
     25  CB        50.0680  120.7950  132.5990 C.3    82  SER82       0.2089
     26  OG        50.2200  121.6950  133.6740 O.3    82  SER82      -0.2183
     27  N         52.7880  118.7920  137.0390 N.3    84  THR84      -0.1218
     28  CA        54.1350  119.2130  137.3580 C.3    84  THR84       0.1862
     29  C         54.5990  118.5360  138.6370 C.2    84  THR84       0.2287
     30  O         53.8490  118.4010  139.6050 O.2    84  THR84      -0.2866
     31  CB        54.1940  120.7230  137.5510 C.3    84  THR84       0.1770
     32  OG1       53.8260  121.3690  136.3240 O.3    84  THR84      -0.2211
     33  CG2       55.6090  121.1600  137.9470 C.3    84  THR84       0.0375
     34  N         51.6840  118.7440  141.1120 N.3    91  ALA91      -0.1245
     35  CA        50.6580  119.7320  140.9420 C.3    91  ALA91       0.1562
     36  C         49.9450  119.4960  139.6170 C.2    91  ALA91       0.2260
     37  O         50.5500  119.5720  138.5370 O.2    91  ALA91      -0.2867
     38  CB        51.2630  121.1360  140.9870 C.3    91  ALA91       0.0290
     39  N         47.3200  120.9010  137.1850 N.3    93  THR93      -0.1218
     40  CA        46.6910  122.1880  136.9110 C.3    93  THR93       0.1862
     41  C         45.8810  122.2200  135.6280 C.2    93  THR93       0.2287
     42  O         46.2500  121.5950  134.6240 O.2    93  THR93      -0.2866
     43  CB        47.7450  123.3390  136.8660 C.3    93  THR93       0.1770
     44  OG1       48.5500  123.2120  135.6880 O.3    93  THR93      -0.2211
     45  CG2       48.6500  123.2640  138.0710 C.3    93  THR93       0.0375
     46  N         43.5620  124.9300  133.0120 N.3    95  GLU95      -0.1245
     47  CA        43.3660  126.3110  132.5930 C.3    95  GLU95       0.1567
     48  C         42.2230  126.3140  131.6080 C.2    95  GLU95       0.2260
     49  O         42.1100  125.4010  130.7970 O.2    95  GLU95      -0.2867
     50  CB        44.5950  126.8520  131.8640 C.3    95  GLU95       0.0388
     51  CG        45.8790  126.8670  132.6730 C.3    95  GLU95       0.1160
     52  CD        47.1140  127.1190  131.8020 C.2    95  GLU95       0.3649
     53  OE1       47.1620  128.1500  131.0760 O.co2  95  GLU95      -0.2457
     54  OE2       48.0420  126.2770  131.8460 O.co2  95  GLU95      -0.2457
     55  N         50.8060  131.5010  136.5740 N.3   361  GLU361     -0.1245
     56  CA        51.5390  130.2710  136.8510 C.3   361  GLU361      0.1567
     57  C         52.4440  130.3830  138.0720 C.2   361  GLU361      0.2260
     58  O         52.4040  129.5300  138.9650 O.2   361  GLU361     -0.2867
     59  CB        52.3850  129.8580  135.6450 C.3   361  GLU361      0.0388
     60  CG        53.2290  128.6150  135.8960 C.3   361  GLU361      0.1160
     61  CD        53.8960  128.0820  134.6350 C.2   361  GLU361      0.3649
     62  OE1       53.1860  127.9030  133.6200 O.co2 361  GLU361     -0.2457
     63  OE2       55.1250  127.8340  134.6600 O.co2 361  GLU361     -0.2457
     64  N         50.2990  130.8660  141.3050 N.3   364  LEU364     -0.1231
     65  CA        49.6550  129.6340  141.7220 C.3   364  LEU364      0.1693
     66  C         50.6780  128.7020  142.3770 C.2   364  LEU364      0.2592
     67  O         50.3930  128.0780  143.4060 O.2   364  LEU364     -0.2718
     68  CB        49.0270  128.9420  140.5160 C.3   364  LEU364      0.0284
     69  CG        47.9290  127.9160  140.8130 C.3   364  LEU364      0.0019
     70  CD1       46.6330  128.6710  141.0260 C.3   364  LEU364      0.0001
     71  CD2       47.7930  126.9330  139.6380 C.3   364  LEU364      0.0001
     72  N         51.8680  128.6110  141.7840 N.am  365  ASP365     -0.1974
     73  CA        52.9200  127.7590  142.3190 C.3   365  ASP365      0.1709
     74  C         53.3540  128.2310  143.7050 C.2   365  ASP365      0.2293
     75  O         53.5570  127.4250  144.6120 O.2   365  ASP365     -0.2864
     76  CB        54.1240  127.7490  141.3660 C.3   365  ASP365      0.1436
     77  CG        55.2960  126.9320  141.9010 C.2   365  ASP365      0.3671
     78  OD1       56.4520  127.4020  141.7710 O.co2 365  ASP365     -0.2456
     79  OD2       55.0760  125.8160  142.4380 O.co2 365  ASP365     -0.2456
@<TRIPOS>BOND
     1    12    13    1
     2    16    13    1
     3    16    17    1
     4    13    14    1
     5    18    17    1
     6    18    19    1
     7    20    19    1
     8    14    15    2
     9    49    48    2
    10    53    52   ar
    11    48    47    1
    12    52    54   ar
    13    52    51    1
    14    50    47    1
    15    50    51    1
    16    47    46    1
    17    25    22    1
    18    25    26    1
    19    21    22    1
    20    22    23    1
    21    62    61   ar
    22    23    24    2
    23    42    41    2
    24    61    63   ar
    25    61    60    1
    26    41    40    1
    27    59    60    1
    28    59    56    1
    29    44    43    1
    30    32    31    1
    31    55    56    1
    32    56    57    1
    33    43    40    1
    34    43    45    1
    35    40    39    1
    36    27    28    1
    37    28    31    1
    38    28    29    1
    39    31    33    1
    40    57    58    2
    41    37    36    2
    42    29    30    2
    43    36    35    1
    44    71    69    1
    45    68    69    1
    46    68    65    1
    47    69    70    1
    48    35    38    1
    49    35    34    1
    50    64    65    1
    51    76    77    1
    52    76    73    1
    53    65    66    1
    54    78    77   ar
    55    72    73    1
    56    72    66   am
    57    77    79   ar
    58    73    74    1
    59    66    67    2
    60    11     9   ar
    61    11    10   ar
    62     9     7   ar
    63    10     8   ar
    64    74    75    2
    65     7     6   ar
    66     8     6   ar
    67     1     2    1
    68     6     5    1
    69     2     5    1
    70     2     3    1
    71     3     4    2
