@<TRIPOS>MOLECULE
tmp/2a06M03.pdb
 222 212 0 0 0
SMALL
GASTEIGER

@<TRIPOS>ATOM
      1  N         29.7950   84.3380   87.4450 N.3   112  LEU112     -0.1245
      2  CA        29.0900   84.9140   86.2970 C.3   112  LEU112      0.1561
      3  C         29.9130   84.8280   85.0020 C.2   112  LEU112      0.2260
      4  O         29.3720   84.5990   83.9240 O.2   112  LEU112     -0.2867
      5  CB        28.7440   86.3730   86.5790 C.3   112  LEU112      0.0270
      6  CG        27.6770   86.5510   87.6570 C.3   112  LEU112      0.0019
      7  CD1       27.7070   87.9850   88.1590 C.3   112  LEU112      0.0001
      8  CD2       26.3130   86.1890   87.0810 C.3   112  LEU112      0.0001
      9  N         29.9550   81.1980   83.7120 N.3   115  MET115     -0.1230
     10  CA        28.6580   80.8890   83.1120 C.3   115  MET115      0.1702
     11  C         28.5740   81.4620   81.7110 C.2   115  MET115      0.2592
     12  O         28.0880   80.7910   80.8050 O.2   115  MET115     -0.2718
     13  CB        27.5070   81.4640   83.9370 C.3   115  MET115      0.0401
     14  CG        27.2890   80.7670   85.2640 C.3   115  MET115      0.0596
     15  SD        25.8670   81.4600   86.1320 S.3   115  MET115     -0.1393
     16  CE        25.2940   79.9500   87.0060 C.3   115  MET115      0.0692
     17  N         29.0490   82.6950   81.5360 N.am  116  ALA116     -0.1980
     18  CA        29.0190   83.3500   80.2330 C.3   116  ALA116      0.1597
     19  C         29.9560   82.6530   79.2540 C.2   116  ALA116      0.2287
     20  O         29.6720   82.5470   78.0640 O.2   116  ALA116     -0.2864
     21  CB        29.4230   84.8220   80.3720 C.3   116  ALA116      0.0319
     22  N         28.4490   79.2140   78.2650 N.3   119  PHE119     -0.1227
     23  CA        27.3350   79.4710   77.3830 C.3   119  PHE119      0.1736
     24  C         27.8570   79.6990   75.9780 C.2   119  PHE119      0.2595
     25  O         27.4080   79.0500   75.0250 O.2   119  PHE119     -0.2718
     26  CB        26.5320   80.6880   77.8770 C.3   119  PHE119      0.0547
     27  CG        25.8830   81.4740   76.7820 C.ar  119  PHE119     -0.0202
     28  CD1       25.0070   80.8630   75.8870 C.ar  119  PHE119     -0.0042
     29  CD2       26.1570   82.8270   76.6310 C.ar  119  PHE119     -0.0042
     30  CE1       24.4120   81.5910   74.8530 C.ar  119  PHE119     -0.0003
     31  CE2       25.5610   83.5820   75.5860 C.ar  119  PHE119     -0.0003
     32  CZ        24.6950   82.9670   74.7020 C.ar  119  PHE119     -0.0000
     33  N         28.8160   80.6080   75.8360 N.am  120  MET120     -0.1979
     34  CA        29.3460   80.8890   74.5100 C.3   120  MET120      0.1605
     35  C         30.0410   79.7030   73.8610 C.2   120  MET120      0.2287
     36  O         29.9260   79.4960   72.6490 O.2   120  MET120     -0.2864
     37  CB        30.2920   82.0750   74.5740 C.3   120  MET120      0.0413
     38  CG        29.5730   83.3150   75.0510 C.3   120  MET120      0.0598
     39  SD        30.6140   84.7550   74.9610 S.3   120  MET120     -0.1393
     40  CE        29.9670   85.4520   73.5650 C.3   120  MET120      0.0692
     41  N         29.3030   76.6630   74.2800 N.3   122  TYR122     -0.1241
     42  CA        28.2350   75.7690   73.8500 C.3   122  TYR122      0.1605
     43  C         27.6360   76.1740   72.5130 C.2   122  TYR122      0.2264
     44  O         27.0890   75.3330   71.8070 O.2   122  TYR122     -0.2867
     45  CB        27.1310   75.7130   74.9030 C.3   122  TYR122      0.0534
     46  CG        26.2000   74.5350   74.7430 C.ar  122  TYR122     -0.0201
     47  CD1       26.7010   73.2410   74.5910 C.ar  122  TYR122     -0.0009
     48  CD2       24.8200   74.7000   74.8070 C.ar  122  TYR122     -0.0009
     49  CE1       25.8540   72.1440   74.5120 C.ar  122  TYR122      0.0417
     50  CE2       23.9610   73.6110   74.7310 C.ar  122  TYR122      0.0417
     51  CZ        24.4840   72.3370   74.5830 C.ar  122  TYR122      0.1957
     52  OH        23.6440   71.2510   74.5090 O.3   122  TYR122     -0.2866
     53  N         20.9120   73.1470   70.0160 N.3   129  MET129     -0.1245
     54  CA        20.9410   73.7860   71.3270 C.3   129  MET129      0.1570
     55  C         21.8210   75.0260   71.2650 C.2   129  MET129      0.2261
     56  O         21.5190   76.0390   71.8820 O.2   129  MET129     -0.2867
     57  CB        21.4460   72.8090   72.3860 C.3   129  MET129      0.0387
     58  CG        20.5480   71.5880   72.5240 C.3   129  MET129      0.0595
     59  SD        18.8740   72.0490   73.0230 S.3   129  MET129     -0.1393
     60  CE        18.0220   72.2810   71.3980 C.3   129  MET129      0.0692
     61  N         20.0900   78.2960   72.1950 N.3   133  GLY133     -0.1225
     62  CA        20.6510   78.7740   73.4400 C.3   133  GLY133      0.1811
     63  C         21.1400   80.1980   73.2080 C.2   133  GLY133      0.2280
     64  O         20.8960   81.0820   74.0360 O.2   133  GLY133     -0.2866
     65  N         17.9300   82.5630   72.9280 N.3   136  VAL136     -0.1231
     66  CA        17.3140   82.8250   74.2070 C.3   136  VAL136      0.1692
     67  C         18.1460   83.6540   75.1740 C.2   136  VAL136      0.2592
     68  O         17.6860   84.6680   75.7020 O.2   136  VAL136     -0.2718
     69  CB        16.9620   81.5190   74.9200 C.3   136  VAL136      0.0266
     70  CG1       16.5160   81.8180   76.3650 C.3   136  VAL136      0.0020
     71  CG2       15.8750   80.7740   74.1350 C.3   136  VAL136      0.0020
     72  N         19.3730   83.2200   75.4180 N.am  137  ILE137     -0.1966
     73  CA        20.2150   83.9090   76.3730 C.3   137  ILE137      0.1727
     74  C         20.5830   85.3390   76.0220 C.2   137  ILE137      0.2616
     75  O         20.5780   86.1980   76.9050 O.2   137  ILE137     -0.2715
     76  CB        21.4720   83.0590   76.6960 C.3   137  ILE137      0.0290
     77  CG1       21.0390   81.8470   77.5360 C.3   137  ILE137      0.0022
     78  CG2       22.4920   83.8800   77.4570 C.3   137  ILE137      0.0023
     79  CD1       22.1040   80.7630   77.6880 C.3   137  ILE137      0.0001
     80  N         20.9010   85.6120   74.7600 N.am  138  THR138     -0.1951
     81  CA        21.2270   86.9800   74.3840 C.3   138  THR138      0.1897
     82  C         19.9350   87.7960   74.5080 C.2   138  THR138      0.2313
     83  O         19.9560   88.9540   74.9220 O.2   138  THR138     -0.2863
     84  CB        21.7330   87.0820   72.9440 C.3   138  THR138      0.1794
     85  OG1       22.7940   86.1440   72.7300 O.3   138  THR138     -0.2208
     86  CG2       22.2740   88.4800   72.6920 C.3   138  THR138      0.0378
     87  N         17.8760   87.7730   76.7050 N.3   140  LEU140     -0.1231
     88  CA        17.5710   88.1770   78.0770 C.3   140  LEU140      0.1693
     89  C         17.7450   89.6980   78.1430 C.2   140  LEU140      0.2591
     90  O         17.0400   90.3870   78.8910 O.2   140  LEU140     -0.2718
     91  CB        18.5210   87.5240   79.0840 C.3   140  LEU140      0.0284
     92  CG        18.4460   85.9990   79.2200 C.3   140  LEU140      0.0019
     93  CD1       19.6000   85.4910   80.1000 C.3   140  LEU140      0.0001
     94  CD2       17.0830   85.6100   79.8010 C.3   140  LEU140      0.0001
     95  N         18.6820   90.2200   77.3530 N.am  141  LEU141     -0.1980
     96  CA        18.9280   91.6530   77.3450 C.3   141  LEU141      0.1596
     97  C         17.7370   92.4580   76.8030 C.2   141  LEU141      0.2287
     98  O         17.6120   93.6510   77.0930 O.2   141  LEU141     -0.2864
     99  CB        20.1780   91.9630   76.5270 C.3   141  LEU141      0.0297
    100  CG        21.4910   91.4410   77.1240 C.3   141  LEU141      0.0022
    101  CD1       22.5920   91.4510   76.0720 C.3   141  LEU141      0.0001
    102  CD2       21.8720   92.2990   78.3160 C.3   141  LEU141      0.0001
    103  N         24.7320   92.9360   69.9130 N.3   155  ILE155     -0.1245
    104  CA        25.4890   91.7470   70.2880 C.3   155  ILE155      0.1561
    105  C         25.4910   90.7770   69.1030 C.2   155  ILE155      0.2260
    106  O         26.5440   90.2790   68.7040 O.2   155  ILE155     -0.2867
    107  CB        24.8480   91.0180   71.5000 C.3   155  ILE155      0.0252
    108  CG1       24.8810   91.9110   72.7330 C.3   155  ILE155      0.0019
    109  CG2       25.5800   89.7160   71.7660 C.3   155  ILE155      0.0019
    110  CD1       26.2570   92.2930   73.1630 C.3   155  ILE155      0.0001
    111  N         31.4090   85.0830   69.0000 N.3   169  PHE169     -0.1241
    112  CA        31.3220   84.2170   70.1600 C.3   169  PHE169      0.1605
    113  C         32.5640   83.3500   70.2620 C.2   169  PHE169      0.2264
    114  O         32.9920   82.9840   71.3650 O.2   169  PHE169     -0.2867
    115  CB        30.0460   83.3650   70.1230 C.3   169  PHE169      0.0534
    116  CG        28.8380   84.0630   70.7140 C.ar  169  PHE169     -0.0203
    117  CD1       28.6960   85.4430   70.6180 C.ar  169  PHE169     -0.0042
    118  CD2       27.8250   83.3350   71.3300 C.ar  169  PHE169     -0.0042
    119  CE1       27.5590   86.0930   71.1270 C.ar  169  PHE169     -0.0003
    120  CE2       26.6850   83.9730   71.8400 C.ar  169  PHE169     -0.0003
    121  CZ        26.5580   85.3560   71.7340 C.ar  169  PHE169     -0.0000
    122  N         35.1260   85.7280   71.7800 N.3   172  PHE172     -0.1241
    123  CA        34.8530   85.9860   73.2060 C.3   172  PHE172      0.1605
    124  C         35.1520   84.7400   74.0430 C.2   172  PHE172      0.2264
    125  O         35.6900   84.8370   75.1290 O.2   172  PHE172     -0.2867
    126  CB        33.3800   86.3480   73.4580 C.3   172  PHE172      0.0534
    127  CG        32.9200   87.5980   72.7650 C.ar  172  PHE172     -0.0203
    128  CD1       33.8250   88.5780   72.3800 C.ar  172  PHE172     -0.0042
    129  CD2       31.5620   87.8180   72.5460 C.ar  172  PHE172     -0.0042
    130  CE1       33.3880   89.7640   71.7880 C.ar  172  PHE172     -0.0003
    131  CE2       31.1100   88.9950   71.9560 C.ar  172  PHE172     -0.0003
    132  CZ        32.0260   89.9720   71.5780 C.ar  172  PHE172     -0.0000
    133  N         13.4190   71.2050   73.9280 N.3   259  ILE259     -0.1231
    134  CA        14.6370   71.9400   74.1850 C.3   259  ILE259      0.1692
    135  C         14.7980   72.2350   75.6700 C.2   259  ILE259      0.2592
    136  O         13.8440   72.5600   76.3680 O.2   259  ILE259     -0.2718
    137  CB        14.6420   73.2770   73.4010 C.3   259  ILE259      0.0266
    138  CG1       15.9280   74.0560   73.7070 C.3   259  ILE259      0.0019
    139  CG2       13.4020   74.1180   73.7610 C.3   259  ILE259      0.0020
    140  CD1       16.0850   75.3190   72.8800 C.3   259  ILE259      0.0001
    141  N         16.0110   72.0790   76.1670 N.am  260  LYS260     -0.1966
    142  CA        16.2690   72.3980   77.5580 C.3   260  LYS260      0.1713
    143  C         17.7240   72.7990   77.6960 C.2   260  LYS260      0.2458
    144  O         18.5640   72.4050   76.8980 O.2   260  LYS260     -0.2730
    145  CB        15.9220   71.2340   78.4900 C.3   260  LYS260      0.0311
    146  CG        16.8060   70.0230   78.4160 C.3   260  LYS260      0.0038
    147  CD        16.4470   69.1230   79.5810 C.3   260  LYS260      0.0206
    148  CE        17.3620   67.9240   79.7010 C.3   260  LYS260      0.1093
    149  NZ        16.9810   67.0670   80.8640 N.3   260  LYS260     -0.1314
    150  N         18.0300   73.6200   78.7000 N.am  261  PRO261     -0.2716
    151  CA        19.3970   74.0910   78.9380 C.3   261  PRO261      0.1536
    152  C         20.3400   72.9920   79.4050 C.2   261  PRO261      0.2598
    153  O         19.9200   71.8930   79.7700 O.2   261  PRO261     -0.2715
    154  CB        19.2270   75.1330   80.0470 C.3   261  PRO261      0.0310
    155  CG        17.7740   75.4480   80.0630 C.3   261  PRO261      0.0237
    156  CD        17.1070   74.1550   79.7070 C.3   261  PRO261      0.0939
    157  N         21.6190   73.3360   79.4040 N.am  262  GLU262     -0.1978
    158  CA        22.6890   72.4800   79.8900 C.3   262  GLU262      0.1602
    159  C         22.2960   72.2180   81.3550 C.2   262  GLU262      0.2287
    160  O         21.6990   73.0880   82.0070 O.2   262  GLU262     -0.2864
    161  CB        24.0240   73.2460   79.8130 C.3   262  GLU262      0.0415
    162  CG        24.4270   73.6950   78.4010 C.3   262  GLU262      0.1163
    163  CD        23.8200   75.0360   77.9910 C.2   262  GLU262      0.3649
    164  OE1       22.5810   75.1340   77.8630 O.co2 262  GLU262     -0.2457
    165  OE2       24.5890   76.0040   77.7920 O.co2 262  GLU262     -0.2457
    166  N         22.5610   74.7930   84.2280 N.3   265  PHE265     -0.1241
    167  CA        21.7710   76.0120   84.1280 C.3   265  PHE265      0.1605
    168  C         20.3010   75.6920   84.4670 C.2   265  PHE265      0.2264
    169  O         19.4770   76.6040   84.5340 O.2   265  PHE265     -0.2867
    170  CB        21.8100   76.5940   82.7040 C.3   265  PHE265      0.0534
    171  CG        23.1280   77.2290   82.3100 C.ar  265  PHE265     -0.0203
    172  CD1       24.0030   77.7380   83.2640 C.ar  265  PHE265     -0.0042
    173  CD2       23.4520   77.3790   80.9600 C.ar  265  PHE265     -0.0042
    174  CE1       25.1760   78.3940   82.8820 C.ar  265  PHE265     -0.0003
    175  CE2       24.6210   78.0280   80.5680 C.ar  265  PHE265     -0.0003
    176  CZ        25.4880   78.5410   81.5280 C.ar  265  PHE265     -0.0000
    177  N         18.4460   77.7380   87.4300 N.3   268  ALA268     -0.1231
    178  CA        18.1670   79.1370   87.0980 C.3   268  ALA268      0.1694
    179  C         17.0360   79.1890   86.0670 C.2   268  ALA268      0.2592
    180  O         16.1580   80.0500   86.1160 O.2   268  ALA268     -0.2718
    181  CB        19.4440   79.8230   86.5600 C.3   268  ALA268      0.0304
    182  N         17.0620   78.2430   85.1410 N.am  269  TYR269     -0.1976
    183  CA        16.0420   78.1330   84.1150 C.3   269  TYR269      0.1639
    184  C         14.6680   77.8430   84.7580 C.2   269  TYR269      0.2290
    185  O         13.6390   78.3870   84.3340 O.2   269  TYR269     -0.2864
    186  CB        16.4340   77.0050   83.1800 C.3   269  TYR269      0.0560
    187  CG        15.3790   76.5620   82.2070 C.ar  269  TYR269     -0.0198
    188  CD1       15.0860   77.3180   81.0770 C.ar  269  TYR269     -0.0009
    189  CD2       14.7400   75.3330   82.3640 C.ar  269  TYR269     -0.0009
    190  CE1       14.1980   76.8590   80.1160 C.ar  269  TYR269      0.0417
    191  CE2       13.8430   74.8600   81.4050 C.ar  269  TYR269      0.0417
    192  CZ        13.5820   75.6240   80.2880 C.ar  269  TYR269      0.1957
    193  OH        12.7320   75.1680   79.3130 O.3   269  TYR269     -0.2866
    194  N         13.4400   81.1850   86.1980 N.3   272  LEU272     -0.1245
    195  CA        12.9490   82.1140   85.1950 C.3   272  LEU272      0.1561
    196  C         11.6000   81.6290   84.6540 C.2   272  LEU272      0.2260
    197  O         10.6560   82.4020   84.5380 O.2   272  LEU272     -0.2867
    198  CB        13.9490   82.2610   84.0450 C.3   272  LEU272      0.0270
    199  CG        13.4910   83.2060   82.9260 C.3   272  LEU272      0.0019
    200  CD1       14.6470   84.0490   82.4470 C.3   272  LEU272      0.0001
    201  CD2       12.9010   82.4180   81.8010 C.3   272  LEU272      0.0001
    202  N         15.9940   85.6360   87.4740 N.3   285  LEU285     -0.1231
    203  CA        17.1490   84.8680   87.0140 C.3   285  LEU285      0.1693
    204  C         18.4160   85.5630   87.5010 C.2   285  LEU285      0.2591
    205  O         19.2630   84.9530   88.1740 O.2   285  LEU285     -0.2718
    206  CB        17.1960   84.8060   85.4860 C.3   285  LEU285      0.0284
    207  CG        18.5060   84.2480   84.9080 C.3   285  LEU285      0.0019
    208  CD1       18.6680   82.7890   85.3250 C.3   285  LEU285      0.0001
    209  CD2       18.5150   84.3920   83.4020 C.3   285  LEU285      0.0001
    210  N         18.5350   86.8420   87.1490 N.am  286  ALA286     -0.1980
    211  CA        19.6900   87.6360   87.5460 C.3   286  ALA286      0.1597
    212  C         19.8540   87.6030   89.0650 C.2   286  ALA286      0.2287
    213  O         20.9480   87.3600   89.5680 O.2   286  ALA286     -0.2864
    214  CB        19.5400   89.0720   87.0690 C.3   286  ALA286      0.0319
    215  N         21.4520   84.6310   91.0220 N.3   289  ILE289     -0.1245
    216  CA        22.8980   84.5490   91.0990 C.3   289  ILE289      0.1561
    217  C         23.4680   85.6970   91.9240 C.2   289  ILE289      0.2260
    218  O         24.3230   85.4890   92.7820 O.2   289  ILE289     -0.2867
    219  CB        23.5680   84.6220   89.7110 C.3   289  ILE289      0.0252
    220  CG1       22.9590   83.5880   88.7590 C.3   289  ILE289      0.0019
    221  CG2       25.0780   84.4070   89.8730 C.3   289  ILE289      0.0019
    222  CD1       23.0230   82.1720   89.2500 C.3   289  ILE289      0.0001
@<TRIPOS>BOND
     1   106   105    2
     2   111   112    1
     3   105   104    1
     4   103   104    1
     5    53    54    1
     6   115   112    1
     7   115   116    1
     8   112   113    1
     9   113   114    2
    10   104   107    1
    11   117   116   ar
    12   117   119   ar
    13   116   118   ar
    14   119   121   ar
    15    55    54    1
    16    55    56    2
    17    54    57    1
    18   118   120   ar
    19    60    59    1
    20   107   109    1
    21   107   108    1
    22   132   130   ar
    23   132   131   ar
    24   121   120   ar
    25   122   123    1
    26   130   128   ar
    27    44    43    2
    28   131   129   ar
    29    61    62    1
    30   128   127   ar
    31    57    58    1
    32    43    42    1
    33    58    59    1
    34   129   127   ar
    35    36    35    2
    36    86    84    1
    37    85    84    1
    38   108   110    1
    39   127   126    1
    40   140   138    1
    41    65    66    1
    42    84    81    1
    43   123   126    1
    44   123   124    1
    45    63    62    1
    46    63    64    2
    47   137   138    1
    48   137   139    1
    49   137   134    1
    50    40    39    1
    51    42    41    1
    52    42    45    1
    53    35    34    1
    54   133   134    1
    55   124   125    2
    56    71    69    1
    57   134   135    1
    58    66    69    1
    59    66    67    1
    60    81    82    1
    61    81    80    1
    62    82    83    2
    63    52    51    1
    64    34    37    1
    65    34    33    1
    66    49    51   ar
    67    49    47   ar
    68    37    38    1
    69    51    50   ar
    70    47    46   ar
    71    32    30   ar
    72    32    31   ar
    73    50    48   ar
    74    46    48   ar
    75    46    45    1
    76    80    74   am
    77    30    28   ar
    78    69    70    1
    79    39    38    1
    80    25    24    2
    81    67    72   am
    82    67    68    2
    83    72    73    1
    84    31    29   ar
    85   135   141   am
    86   135   136    2
    87    33    24   am
    88    28    27   ar
    89    24    23    1
    90    74    73    1
    91    74    75    2
    92   101   100    1
    93   141   142    1
    94    73    76    1
    95    99   100    1
    96    99    96    1
    97    29    27   ar
    98    76    78    1
    99    76    77    1
   100    87    88    1
   101    27    26    1
   102    97    98    2
   103    97    96    1
   104   144   143    2
   105   100   102    1
   106    96    95    1
   107    95    89   am
   108    23    26    1
   109    23    22    1
   110    77    79    1
   111   142   143    1
   112   142   145    1
   113   143   150   am
   114   165   163   ar
   115   164   163   ar
   116   163   162    1
   117    20    19    2
   118    88    89    1
   119    88    91    1
   120    89    90    2
   121   162   161    1
   122   146   145    1
   123   146   147    1
   124   150   151    1
   125   150   156    1
   126   151   152    1
   127   151   154    1
   128    91    92    1
   129    92    94    1
   130    92    93    1
   131    19    18    1
   132   193   192    1
   133   157   152   am
   134   157   158    1
   135   152   153    2
   136   147   148    1
   137   148   149    1
   138   156   155    1
   139   161   158    1
   140   158   159    1
   141   154   155    1
   142   190   192   ar
   143   190   188   ar
   144    18    21    1
   145    18    17    1
   146   192   191   ar
   147   175   173   ar
   148   175   176   ar
   149    12    11    2
   150   173   171   ar
   151   188   187   ar
   152   159   160    2
   153   191   189   ar
   154   176   174   ar
   155    17    11   am
   156    11    10    1
   157   201   199    1
   158   187   189   ar
   159   187   186    1
   160   171   170    1
   161   171   172   ar
   162   200   199    1
   163   170   167    1
   164   174   172   ar
   165   199   198    1
   166    10     9    1
   167    10    13    1
   168   186   183    1
   169   209   207    1
   170     4     3    2
   171    13    14    1
   172   198   195    1
   173   183   184    1
   174   183   182    1
   175   167   166    1
   176   167   168    1
   177   185   184    2
   178   168   169    2
   179   197   196    2
   180   196   195    1
   181   207   208    1
   182   207   206    1
   183     3     2    1
   184   182   179   am
   185   195   194    1
   186    14    15    1
   187   206   203    1
   188   179   180    2
   189   179   178    1
   190    15    16    1
   191     2     5    1
   192     2     1    1
   193   181   178    1
   194     5     6    1
   195   203   202    1
   196   203   204    1
   197   214   211    1
   198     8     6    1
   199   178   177    1
   200   210   204   am
   201   210   211    1
   202   204   205    2
   203   211   212    1
   204     6     7    1
   205   220   222    1
   206   220   219    1
   207   212   213    2
   208   219   221    1
   209   219   216    1
   210   215   216    1
   211   216   217    1
   212   217   218    2
