@<TRIPOS>MOLECULE
tmp/2a06M04.pdb
 160 153 0 0 0
SMALL
GASTEIGER

@<TRIPOS>ATOM
      1  N         54.8630   82.1200   99.5390 N.3     8  ALA8       -0.1231
      2  CA        53.6580   82.3890   98.7620 C.3     8  ALA8        0.1694
      3  C         52.9500   81.0650   98.5000 C.2     8  ALA8        0.2592
      4  O         51.7520   81.0330   98.2220 O.2     8  ALA8       -0.2718
      5  CB        54.0210   83.0590   97.4410 C.3     8  ALA8        0.0304
      6  N         53.7050   79.9730   98.5970 N.am    9  PHE9       -0.1976
      7  CA        53.1660   78.6410   98.3760 C.3     9  PHE9        0.1639
      8  C         53.6660   77.6360   99.4130 C.2     9  PHE9        0.2290
      9  O         52.9420   77.2750  100.3390 O.2     9  PHE9       -0.2864
     10  CB        53.5330   78.1450   96.9750 C.3     9  PHE9        0.0560
     11  CG        52.9360   76.8070   96.6350 C.ar    9  PHE9       -0.0200
     12  CD1       51.5670   76.6800   96.4100 C.ar    9  PHE9       -0.0042
     13  CD2       53.7320   75.6650   96.5840 C.ar    9  PHE9       -0.0042
     14  CE1       50.9980   75.4340   96.1400 C.ar    9  PHE9       -0.0003
     15  CE2       53.1740   74.4130   96.3160 C.ar    9  PHE9       -0.0003
     16  CZ        51.8050   74.2990   96.0950 C.ar    9  PHE9       -0.0000
     17  N         53.3860   78.7440  102.9370 N.3    12  LEU12      -0.1231
     18  CA        52.1050   79.3870  103.1540 C.3    12  LEU12       0.1678
     19  C         51.4550   78.7280  104.3760 C.2    12  LEU12       0.2434
     20  O         51.3110   77.5100  104.4200 O.2    12  LEU12      -0.2733
     21  CB        51.2270   79.1810  101.9270 C.3    12  LEU12       0.0284
     22  CG        49.8170   79.7580  101.9630 C.3    12  LEU12       0.0019
     23  CD1       49.8700   81.2830  101.9090 C.3    12  LEU12       0.0001
     24  CD2       49.0500   79.2070  100.7820 C.3    12  LEU12       0.0001
     25  N         51.0850   79.5230  105.3950 N.am   13  PRO13      -0.2718
     26  CA        50.4540   78.9730  106.6000 C.3    13  PRO13       0.1535
     27  C         49.0200   78.5950  106.2680 C.2    13  PRO13       0.2598
     28  O         48.2650   79.4200  105.7670 O.2    13  PRO13      -0.2715
     29  CB        50.5150   80.1340  107.5910 C.3    13  PRO13       0.0310
     30  CG        51.6250   81.0190  107.0480 C.3    13  PRO13       0.0237
     31  CD        51.3860   80.9530  105.5770 C.3    13  PRO13       0.0939
     32  N         48.6420   77.3570  106.5440 N.am   14  ALA14      -0.1978
     33  CA        47.2880   76.9090  106.2440 C.3    14  ALA14       0.1597
     34  C         46.6650   76.3310  107.5130 C.2    14  ALA14       0.2287
     35  O         47.3780   75.8060  108.3780 O.2    14  ALA14      -0.2864
     36  CB        47.3360   75.8500  105.1310 C.3    14  ALA14       0.0319
     37  N         41.4980   72.0850  107.6390 N.3    18  ILE18      -0.1245
     38  CA        40.5910   72.2370  106.5100 C.3    18  ILE18       0.1561
     39  C         40.3360   70.8630  105.9250 C.2    18  ILE18       0.2260
     40  O         41.2570   70.0760  105.7210 O.2    18  ILE18      -0.2867
     41  CB        41.1440   73.1830  105.4130 C.3    18  ILE18       0.0252
     42  CG1       42.6360   72.9500  105.2140 C.3    18  ILE18       0.0019
     43  CG2       40.8550   74.6300  105.7790 C.3    18  ILE18       0.0019
     44  CD1       43.2010   73.7720  104.0810 C.3    18  ILE18       0.0001
     45  N         37.6980   72.0090  101.1340 N.3    22  TRP22      -0.1241
     46  CA        38.6660   73.0350  100.7680 C.3    22  TRP22       0.1605
     47  C         39.5030   72.6360   99.5560 C.2    22  TRP22       0.2264
     48  O         40.3600   73.3920   99.1290 O.2    22  TRP22      -0.2867
     49  CB        39.5850   73.3670  101.9400 C.3    22  TRP22       0.0550
     50  CG        39.0620   74.4790  102.8170 C.ar   22  TRP22       0.0003
     51  CD1       39.5330   75.7690  102.8920 C.ar   22  TRP22       0.0946
     52  CD2       37.9440   74.4100  103.7070 C.ar   22  TRP22       0.0152
     53  NE1       38.7720   76.5040  103.7770 N.ar   22  TRP22      -0.2442
     54  CE2       37.7890   75.6950  104.2900 C.ar   22  TRP22       0.0810
     55  CE3       37.0520   73.3950  104.0690 C.ar   22  TRP22       0.0012
     56  CZ2       36.7780   75.9800  105.2150 C.ar   22  TRP22       0.0191
     57  CZ3       36.0400   73.6890  104.9920 C.ar   22  TRP22       0.0001
     58  CH2       35.9170   74.9630  105.5480 C.ar   22  TRP22       0.0015
     59  N         38.8740   74.5620   95.4810 N.3    25  GLY25      -0.1210
     60  CA        39.5280   75.7370   94.9390 C.3    25  GLY25       0.1956
     61  C         40.6290   75.2670   93.9960 C.2    25  GLY25       0.2612
     62  O         40.6890   75.7090   92.8530 O.2    25  GLY25      -0.2717
     63  N         41.4960   74.3570   94.4480 N.am   26  SER26      -0.1952
     64  CA        42.5540   73.8870   93.5650 C.3    26  SER26       0.1924
     65  C         41.9660   73.1000   92.4020 C.2    26  SER26       0.2314
     66  O         42.5160   73.1240   91.3010 O.2    26  SER26      -0.2863
     67  CB        43.5790   73.0380   94.3100 C.3    26  SER26       0.2116
     68  OG        43.0070   71.8390   94.7840 O.3    26  SER26      -0.2180
     69  N         40.9590   75.4340   89.7790 N.3    29  GLY29      -0.1225
     70  CA        42.1390   75.8940   89.0660 C.3    29  GLY29       0.1811
     71  C         42.5240   74.8610   88.0130 C.2    29  GLY29       0.2280
     72  O         42.8430   75.2070   86.8720 O.2    29  GLY29      -0.2866
     73  N         42.6520   75.1350   83.9040 N.3    33  ILE33      -0.1245
     74  CA        43.8160   74.8060   83.0920 C.3    33  ILE33       0.1561
     75  C         43.4850   73.6910   82.0810 C.2    33  ILE33       0.2260
     76  O         43.9840   73.7030   80.9500 O.2    33  ILE33      -0.2867
     77  CB        45.0000   74.4110   84.0060 C.3    33  ILE33       0.0252
     78  CG1       45.4900   75.6680   84.7370 C.3    33  ILE33       0.0019
     79  CG2       46.1290   73.7810   83.1970 C.3    33  ILE33       0.0019
     80  CD1       46.4370   75.3770   85.8750 C.3    33  ILE33       0.0001
     81  N         40.9620   85.0900   88.7590 N.3   184  ALA184     -0.1231
     82  CA        41.1540   84.0530   89.7620 C.3   184  ALA184      0.1694
     83  C         42.4300   84.3330   90.5550 C.2   184  ALA184      0.2591
     84  O         42.5100   84.0230   91.7570 O.2   184  ALA184     -0.2718
     85  CB        41.2250   82.6860   89.1120 C.3   184  ALA184      0.0304
     86  N         43.4320   84.9140   89.8960 N.am  185  MET185     -0.1979
     87  CA        44.6800   85.2390   90.5880 C.3   185  MET185      0.1605
     88  C         44.4100   86.3550   91.5940 C.2   185  MET185      0.2287
     89  O         44.9710   86.3710   92.6860 O.2   185  MET185     -0.2864
     90  CB        45.7740   85.6300   89.5840 C.3   185  MET185      0.0413
     91  CG        46.2300   84.4210   88.7770 C.3   185  MET185      0.0598
     92  SD        47.5830   84.6360   87.6080 S.3   185  MET185     -0.1393
     93  CE        46.7100   85.3600   86.1840 C.3   185  MET185      0.0692
     94  N         42.7910   84.9360   94.5500 N.3   188  LEU188     -0.1245
     95  CA        43.7560   84.3550   95.4710 C.3   188  LEU188      0.1561
     96  C         44.5790   85.3790   96.2370 C.2   188  LEU188      0.2260
     97  O         44.8700   85.1870   97.4180 O.2   188  LEU188     -0.2867
     98  CB        44.6850   83.3930   94.7410 C.3   188  LEU188      0.0270
     99  CG        44.0760   82.0080   94.6220 C.3   188  LEU188      0.0019
    100  CD1       45.1360   81.0490   94.1390 C.3   188  LEU188      0.0001
    101  CD2       43.5450   81.5660   95.9870 C.3   188  LEU188      0.0001
    102  N         42.7040   86.4150   99.1280 N.3   191  LEU191     -0.1231
    103  CA        42.5890   85.3820  100.1380 C.3   191  LEU191      0.1693
    104  C         43.8590   85.2860  100.9900 C.2   191  LEU191      0.2592
    105  O         43.7740   85.0840  102.1950 O.2   191  LEU191     -0.2718
    106  CB        42.2880   84.0310   99.4840 C.3   191  LEU191      0.0284
    107  CG        42.1190   82.8600  100.4520 C.3   191  LEU191      0.0019
    108  CD1       40.8990   83.0890  101.3310 C.3   191  LEU191      0.0001
    109  CD2       41.9770   81.5750   99.6800 C.3   191  LEU191      0.0001
    110  N         45.0300   85.4430  100.3760 N.am  192  HIS192     -0.1976
    111  CA        46.2960   85.3430  101.1130 C.3   192  HIS192      0.1656
    112  C         46.4850   86.4220  102.1650 C.2   192  HIS192      0.2291
    113  O         47.3180   86.2970  103.0730 O.2   192  HIS192     -0.2864
    114  CB        47.4960   85.3480  100.1600 C.3   192  HIS192      0.0771
    115  CG        47.6370   84.0870   99.3740 C.ar  192  HIS192      0.0820
    116  ND1       48.7650   83.7900   98.6390 N.ar  192  HIS192     -0.2267
    117  CD2       46.7830   83.0510   99.1920 C.ar  192  HIS192      0.1154
    118  CE1       48.5990   82.6270   98.0360 C.ar  192  HIS192      0.1986
    119  NE2       47.4070   82.1590   98.3550 N.ar  192  HIS192     -0.2212
    120  N         44.2960   84.4530  104.7660 N.3   195  GLY195     -0.1210
    121  CA        44.5530   83.0350  104.9100 C.3   195  GLY195      0.1956
    122  C         43.1780   82.3790  104.8310 C.2   195  GLY195      0.2612
    123  O         42.1580   83.0750  104.7480 O.2   195  GLY195     -0.2717
    124  N         43.1280   81.0560  104.8690 N.am  196  SER196     -0.1952
    125  CA        41.8590   80.3440  104.7690 C.3   196  SER196      0.1924
    126  C         41.0440   80.2970  106.0480 C.2   196  SER196      0.2314
    127  O         41.5730   80.4330  107.1420 O.2   196  SER196     -0.2863
    128  CB        42.0910   78.9020  104.3150 C.3   196  SER196      0.2116
    129  OG        42.7390   78.8480  103.0520 O.3   196  SER196     -0.2180
    130  N         51.6970   74.7300  103.9070 N.3   211  PHE211     -0.1241
    131  CA        50.8910   74.2290  102.8030 C.3   211  PHE211      0.1605
    132  C         51.5490   72.9590  102.2360 C.2   211  PHE211      0.2264
    133  O         50.8710   71.9970  101.8540 O.2   211  PHE211     -0.2867
    134  CB        50.7820   75.2730  101.6940 C.3   211  PHE211      0.0534
    135  CG        49.7990   74.9020  100.6400 C.ar  211  PHE211     -0.0203
    136  CD1       48.4440   75.1650  100.8180 C.ar  211  PHE211     -0.0042
    137  CD2       50.2080   74.2060   99.5070 C.ar  211  PHE211     -0.0042
    138  CE1       47.5070   74.7390   99.8880 C.ar  211  PHE211     -0.0003
    139  CE2       49.2770   73.7670   98.5630 C.ar  211  PHE211     -0.0003
    140  CZ        47.9230   74.0350   98.7540 C.ar  211  PHE211     -0.0000
    141  N         49.0000   69.9940  102.2080 N.3   215  TYR215     -0.1241
    142  CA        47.9310   70.2410  101.2640 C.3   215  TYR215      0.1605
    143  C         48.3850   70.0330   99.8440 C.2   215  TYR215      0.2264
    144  O         47.5780   69.7980   98.9520 O.2   215  TYR215     -0.2867
    145  CB        47.3280   71.6270  101.5170 C.3   215  TYR215      0.0534
    146  CG        46.6310   71.6470  102.8660 C.ar  215  TYR215     -0.0201
    147  CD1       45.5500   70.8050  103.1100 C.ar  215  TYR215     -0.0009
    148  CD2       47.1060   72.4320  103.9210 C.ar  215  TYR215     -0.0009
    149  CE1       44.9570   70.7210  104.3700 C.ar  215  TYR215      0.0417
    150  CE2       46.5160   72.3600  105.1950 C.ar  215  TYR215      0.0417
    151  CZ        45.4360   71.4880  105.4030 C.ar  215  TYR215      0.1957
    152  OH        44.8460   71.3590  106.6410 O.3   215  TYR215     -0.2866
    153  N         45.9990   67.9570   97.7870 N.3   219  ASP219     -0.1239
    154  CA        45.5000   68.5200   96.5280 C.3   219  ASP219      0.1674
    155  C         45.7270   67.5640   95.3570 C.2   219  ASP219      0.2266
    156  O         44.8760   67.4420   94.4750 O.2   219  ASP219     -0.2867
    157  CB        46.1600   69.8720   96.2210 C.3   219  ASP219      0.1410
    158  CG        45.5280   71.0190   96.9960 C.2   219  ASP219      0.3668
    159  OD1       44.5350   70.7610   97.7140 O.co2 219  ASP219     -0.2456
    160  OD2       46.0070   72.1780   96.8930 O.co2 219  ASP219     -0.2456
@<TRIPOS>BOND
     1    76    75    2
     2    75    74    1
     3    74    73    1
     4    74    77    1
     5    79    77    1
     6    77    78    1
     7    78    80    1
     8    93    92    1
     9    72    71    2
    10    92    91    1
    11    71    70    1
    12    81    82    1
    13    91    90    1
    14    70    69    1
    15    85    82    1
    16    90    87    1
    17    82    83    1
    18    86    83   am
    19    86    87    1
    20    83    84    2
    21    87    88    1
    22    66    65    2
    23    88    89    2
    24    65    64    1
    25    62    61    2
    26    64    67    1
    27    64    63    1
    28    61    63   am
    29    61    60    1
    30   100    99    1
    31    67    68    1
    32   156   155    2
    33    94    95    1
    34    99    98    1
    35    99   101    1
    36    98    95    1
    37    60    59    1
    38   155   154    1
    39    95    96    1
    40    16    14   ar
    41    16    15   ar
    42    14    12   ar
    43   157   154    1
    44   157   158    1
    45    96    97    2
    46    15    13   ar
    47    12    11   ar
    48   154   153    1
    49    13    11   ar
    50    11    10    1
    51   160   158   ar
    52    10     7    1
    53   158   159   ar
    54     5     2    1
    55   118   119   ar
    56   118   116   ar
    57     4     3    2
    58   119   117   ar
    59     7     6    1
    60     7     8    1
    61     3     6   am
    62     3     2    1
    63   139   140   ar
    64   139   137   ar
    65   116   115   ar
    66   140   138   ar
    67     2     1    1
    68   144   143    2
    69   102   103    1
    70    48    47    2
    71   117   115   ar
    72   115   114    1
    73     8     9    2
    74   106   103    1
    75   106   107    1
    76   137   135   ar
    77    47    46    1
    78   109   107    1
    79   143   142    1
    80   138   136   ar
    81   103   104    1
    82   114   111    1
    83   110   104   am
    84   110   111    1
    85   107   108    1
    86   135   136   ar
    87   135   134    1
    88    46    45    1
    89    46    49    1
    90    24    22    1
    91   104   105    2
    92   111   112    1
    93   142   145    1
    94   142   141    1
    95   145   146    1
    96   134   131    1
    97   133   132    2
    98    23    22    1
    99    21    22    1
   100    21    18    1
   101    49    50    1
   102   112   113    2
   103   132   131    1
   104   131   130    1
   105    50    51   ar
   106    50    52   ar
   107   146   147   ar
   108   146   148   ar
   109    51    53   ar
   110    17    18    1
   111   129   128    1
   112   147   149   ar
   113    18    19    1
   114    52    55   ar
   115    52    54   ar
   116    53    54   ar
   117   148   150   ar
   118    55    57   ar
   119    44    42    1
   120    54    56   ar
   121   128   125    1
   122   149   151   ar
   123    19    20    2
   124    19    25   am
   125   123   122    2
   126   120   121    1
   127   125   124    1
   128   125   126    1
   129   122   124   am
   130   122   121    1
   131    57    58   ar
   132    36    33    1
   133   150   151   ar
   134    42    41    1
   135    56    58   ar
   136    25    31    1
   137    25    26    1
   138   151   152    1
   139    41    43    1
   140    41    38    1
   141    31    30    1
   142    40    39    2
   143    28    27    2
   144    39    38    1
   145   126   127    2
   146    33    32    1
   147    33    34    1
   148    27    32   am
   149    27    26    1
   150    38    37    1
   151    26    29    1
   152    30    29    1
   153    34    35    2
