@<TRIPOS>MOLECULE
tmp/2a0cA00.pdb
 184 177 0 0 0
SMALL
GASTEIGER

@<TRIPOS>ATOM
      1  N         -0.7770   11.2440   38.1220 N.3     8  GLU8       -0.1231
      2  CA        -0.3590   12.4110   37.3380 C.3     8  GLU8        0.1699
      3  C         -0.9320   12.3870   35.9290 C.2     8  GLU8        0.2592
      4  O         -1.1740   11.3190   35.3830 O.2     8  GLU8       -0.2718
      5  CB         1.1790   12.5180   37.2790 C.3     8  GLU8        0.0402
      6  CG         1.9160   11.3770   36.5780 C.3     8  GLU8        0.1161
      7  CD         3.4310   11.5370   36.6090 C.2     8  GLU8        0.3649
      8  OE1        4.1080   11.3010   35.5670 O.co2   8  GLU8       -0.2457
      9  OE2        3.9580   11.9010   37.6890 O.co2   8  GLU8       -0.2457
     10  N         -1.1440   13.5670   35.3440 N.am    9  LYS9       -0.1966
     11  CA        -1.5900   13.6690   33.9510 C.3     9  LYS9        0.1728
     12  C         -0.4680   13.2840   33.0020 C.2     9  LYS9        0.2616
     13  O          0.5520   13.9690   32.9220 O.2     9  LYS9       -0.2715
     14  CB        -2.0980   15.0730   33.6140 C.3     9  LYS9        0.0311
     15  CG        -3.2080   15.0790   32.5460 C.3     9  LYS9        0.0038
     16  CD        -3.2900   16.4150   31.8020 C.3     9  LYS9        0.0206
     17  CE        -4.7300   16.8160   31.5350 C.3     9  LYS9        0.1093
     18  NZ        -4.8220   18.0330   30.6430 N.3     9  LYS9       -0.1314
     19  N         -0.6550   12.1580   32.3300 N.am   10  ILE10      -0.1963
     20  CA         0.2700   11.6410   31.3170 C.3    10  ILE10       0.1730
     21  C          0.1860   12.4810   30.0430 C.2    10  ILE10       0.2656
     22  O          1.1860   12.6610   29.3420 O.2    10  ILE10      -0.2711
     23  CB        -0.0920   10.1240   31.0040 C.3    10  ILE10       0.0290
     24  CG1        0.7850    9.1770   31.7900 C.3    10  ILE10       0.0022
     25  CG2       -0.0180    9.7670   29.5210 C.3    10  ILE10       0.0023
     26  CD1        0.2720    7.7570   31.7600 C.3    10  ILE10       0.0001
     27  N         -1.0190   12.9490   29.7240 N.am   11  GLY11      -0.1716
     28  CA        -1.2510   13.7030   28.5040 C.2    11  GLY11       0.1480
     29  C         -2.6990   13.7700   28.0480 C.2    11  GLY11       0.2820
     30  O         -3.6230   13.4720   28.7890 O.2    11  GLY11      -0.2669
     31  N         -2.8800   14.2050   26.8070 N.am   12  GLU12      -0.1929
     32  CA        -4.1940   14.5130   26.2660 C.3    12  GLU12       0.1736
     33  C         -4.2410   14.0440   24.8210 C.2    12  GLU12       0.2617
     34  O         -3.7980   14.7530   23.9160 O.2    12  GLU12      -0.2715
     35  CB        -4.4770   16.0210   26.3660 C.3    12  GLU12       0.0429
     36  CG        -4.0420   16.6740   27.6820 C.3    12  GLU12       0.1163
     37  CD        -4.0640   18.2030   27.6420 C.2    12  GLU12       0.3649
     38  OE1       -3.1950   18.8020   26.9550 O.co2  12  GLU12      -0.2457
     39  OE2       -4.9370   18.8070   28.3190 O.co2  12  GLU12      -0.2457
     40  N         -4.7350   12.8200   24.6150 N.am   13  GLY13      -0.1955
     41  CA        -4.9260   12.2670   23.2820 C.3    13  GLY13       0.1869
     42  C         -6.0340   12.9490   22.4940 C.2    13  GLY13       0.2309
     43  O         -6.5380   14.0160   22.8760 O.2    13  GLY13      -0.2863
     44  N         -5.2860   11.2390   29.4450 N.3    18  VAL18      -0.1245
     45  CA        -4.6260   10.0400   29.9500 C.3    18  VAL18       0.1561
     46  C         -3.9610   10.3540   31.2870 C.2    18  VAL18       0.2260
     47  O         -3.2340   11.3450   31.4270 O.2    18  VAL18      -0.2867
     48  CB        -3.6210    9.4570   28.9130 C.3    18  VAL18       0.0252
     49  CG1       -3.0570    8.0740   29.4030 C.3    18  VAL18       0.0019
     50  CG2       -4.2850    9.2630   27.5740 C.3    18  VAL18       0.0019
     51  N         -2.2190    3.0700   32.9870 N.3    31  ALA31      -0.1245
     52  CA        -2.5470    4.3270   32.3310 C.3    31  ALA31       0.1562
     53  C         -4.0460    4.2840   32.1090 C.2    31  ALA31       0.2260
     54  O         -4.5570    3.2880   31.6430 O.2    31  ALA31      -0.2867
     55  CB        -1.8510    4.4550   31.0540 C.3    31  ALA31       0.0290
     56  N         -7.2510    6.0650   30.2790 N.3    33  LYS33      -0.1245
     57  CA        -7.7290    7.0380   29.3140 C.3    33  LYS33       0.1561
     58  C         -9.2120    7.3010   29.6000 C.2    33  LYS33       0.2260
     59  O        -10.0090    6.3760   29.6050 O.2    33  LYS33      -0.2867
     60  CB        -7.5160    6.5120   27.8930 C.3    33  LYS33       0.0271
     61  CG        -7.8490    7.4790   26.8020 C.3    33  LYS33       0.0035
     62  CD        -7.5210    6.9290   25.4390 C.3    33  LYS33       0.0206
     63  CE        -7.4260    8.0310   24.3740 C.3    33  LYS33       0.1093
     64  NZ        -7.6700    7.4470   22.9990 N.3    33  LYS33      -0.1314
     65  N          0.3890   -2.2650   23.1790 N.3    60  VAL60      -0.1245
     66  CA         0.1170   -1.9110   24.5760 C.3    60  VAL60       0.1561
     67  C         -1.1590   -2.6510   25.0190 C.2    60  VAL60       0.2260
     68  O         -2.2360   -2.4840   24.4380 O.2    60  VAL60      -0.2867
     69  CB        -0.0450   -0.3800   24.8110 C.3    60  VAL60       0.0252
     70  CG1       -0.3190   -0.0520   26.2800 C.3    60  VAL60       0.0019
     71  CG2        1.2160    0.3410   24.4630 C.3    60  VAL60       0.0019
     72  N         -5.0840    0.7680   30.4920 N.3    76  PHE76      -0.1227
     73  CA        -3.9630    0.1720   29.7510 C.3    76  PHE76       0.1736
     74  C         -2.8350   -0.1760   30.6730 C.2    76  PHE76       0.2595
     75  O         -2.7080    0.4020   31.7250 O.2    76  PHE76      -0.2718
     76  CB        -3.4460    1.1340   28.6990 C.3    76  PHE76       0.0547
     77  CG        -4.3870    1.3900   27.5740 C.ar   76  PHE76      -0.0202
     78  CD1       -4.3520    0.5860   26.4470 C.ar   76  PHE76      -0.0042
     79  CD2       -5.2990    2.4770   27.6160 C.ar   76  PHE76      -0.0042
     80  CE1       -5.2020    0.8190   25.3480 C.ar   76  PHE76      -0.0003
     81  CE2       -6.1340    2.7190   26.5320 C.ar   76  PHE76      -0.0003
     82  CZ        -6.0690    1.8710   25.3830 C.ar   76  PHE76      -0.0000
     83  N         -1.9760   -1.0950   30.2470 N.am   77  GLU77      -0.1965
     84  CA        -0.6760   -1.2300   30.8800 C.3    77  GLU77       0.1733
     85  C          0.0870    0.1100   30.7450 C.2    77  GLU77       0.2616
     86  O         -0.0890    0.8280   29.7650 O.2    77  GLU77      -0.2715
     87  CB         0.0740   -2.4290   30.2530 C.3    77  GLU77       0.0429
     88  CG         1.4850   -2.1760   29.7640 C.3    77  GLU77       0.1163
     89  CD         1.9990   -3.2400   28.7830 C.2    77  GLU77       0.3649
     90  OE1        2.9360   -3.9370   29.1550 O.co2  77  GLU77      -0.2457
     91  OE2        1.5160   -3.3730   27.6360 O.co2  77  GLU77      -0.2457
     92  N          0.9350    0.4330   31.7090 N.am   78  PHE78      -0.1960
     93  CA         1.6990    1.6640   31.6990 C.3    78  PHE78       0.1771
     94  C          3.1330    1.4120   31.1990 C.2    78  PHE78       0.2619
     95  O          3.7970    0.5340   31.7040 O.2    78  PHE78      -0.2715
     96  CB         1.7040    2.2690   33.1170 C.3    78  PHE78       0.0574
     97  CG         2.5160    3.4990   33.2610 C.ar   78  PHE78      -0.0200
     98  CD1        2.0310    4.7200   32.8460 C.ar   78  PHE78      -0.0042
     99  CD2        3.7780    3.4470   33.8190 C.ar   78  PHE78      -0.0042
    100  CE1        2.7800    5.8480   32.9540 C.ar   78  PHE78      -0.0003
    101  CE2        4.5430    4.5710   33.9360 C.ar   78  PHE78      -0.0003
    102  CZ         4.0470    5.7970   33.5140 C.ar   78  PHE78      -0.0000
    103  N          3.5960    2.2390   30.2520 N.am   79  LEU79      -0.1963
    104  CA         5.0030    2.2850   29.8400 C.3    79  LEU79       0.1728
    105  C          5.6440    3.6180   30.2240 C.2    79  LEU79       0.2616
    106  O          4.9840    4.6460   30.2350 O.2    79  LEU79      -0.2715
    107  CB         5.1580    2.0150   28.3330 C.3    79  LEU79       0.0311
    108  CG         5.1790    0.4850   28.0890 C.3    79  LEU79       0.0022
    109  CD1        3.7400   -0.0200   27.8170 C.3    79  LEU79       0.0001
    110  CD2        6.1160    0.1070   26.9510 C.3    79  LEU79       0.0001
    111  N          6.9440    3.6290   30.4950 N.am   80  HIS80      -0.1959
    112  CA         7.5500    4.8140   31.1270 C.3    80  HIS80       0.1787
    113  C          8.0000    5.9120   30.2060 C.2    80  HIS80       0.2620
    114  O          8.2350    7.0310   30.6460 O.2    80  HIS80      -0.2715
    115  CB         8.7160    4.3980   31.9940 C.3    80  HIS80       0.0785
    116  CG         8.2960    3.8510   33.3170 C.ar   80  HIS80       0.0821
    117  ND1        7.8020    2.5730   33.4700 N.ar   80  HIS80      -0.2267
    118  CD2        8.2600    4.4280   34.5420 C.ar   80  HIS80       0.1154
    119  CE1        7.5030    2.3790   34.7470 C.ar   80  HIS80       0.1986
    120  NE2        7.7730    3.4880   35.4170 N.ar   80  HIS80      -0.2212
    121  N          8.0820    5.6240   28.9130 N.am   81  GLN81      -0.1963
    122  CA         8.4880    6.6530   27.9900 C.3    81  GLN81       0.1733
    123  C          7.8800    6.4490   26.6110 C.2    81  GLN81       0.2616
    124  O          7.5850    5.3360   26.2250 O.2    81  GLN81      -0.2715
    125  CB         9.9960    6.6610   27.8760 C.3    81  GLN81       0.0408
    126  CG        10.5390    7.9440   27.2070 C.3    81  GLN81       0.0908
    127  CD        11.8770    8.2980   27.7520 C.2    81  GLN81       0.2608
    128  OE1       12.0400    8.4280   28.9910 O.2    81  GLN81      -0.2717
    129  NE2       12.8690    8.3660   26.8820 N.am   81  GLN81      -0.0878
    130  N          7.7320    7.5280   25.8710 N.am   82  ASP82      -0.1971
    131  CA         7.3060    7.4190   24.4610 C.3    82  ASP82       0.1709
    132  C          8.4650    7.8180   23.5200 C.2    82  ASP82       0.2293
    133  O          9.4150    8.4850   23.9340 O.2    82  ASP82      -0.2864
    134  CB         6.0270    8.2130   24.2010 C.3    82  ASP82       0.1436
    135  CG         6.2290    9.7260   24.2170 C.2    82  ASP82       0.3671
    136  OD1        7.1660   10.2690   23.5790 O.co2  82  ASP82      -0.2456
    137  OD2        5.4280   10.4640   24.7850 O.co2  82  ASP82      -0.2456
    138  N          9.5950   11.5720   23.1520 N.3    85  LYS85      -0.1245
    139  CA        10.4670   12.0700   24.2130 C.3    85  LYS85       0.1561
    140  C         11.8570   11.4410   24.1030 C.2    85  LYS85       0.2260
    141  O         12.8710   12.0930   24.3600 O.2    85  LYS85      -0.2867
    142  CB         9.8360   11.8290   25.6030 C.3    85  LYS85       0.0271
    143  CG         8.4550   12.4850   25.7470 C.3    85  LYS85       0.0035
    144  CD         7.8750   12.4000   27.1920 C.3    85  LYS85       0.0206
    145  CE         6.8110   11.2700   27.3390 C.3    85  LYS85       0.1093
    146  NZ         7.3150    9.8640   27.6890 N.3    85  LYS85      -0.1314
    147  N          4.4680    9.9090   19.3740 N.3   127  GLN127     -0.1231
    148  CA         3.8780   10.0310   20.7390 C.3   127  GLN127      0.1698
    149  C          3.0100    8.8210   21.1310 C.2   127  GLN127      0.2592
    150  O          2.7120    8.6410   22.3270 O.2   127  GLN127     -0.2718
    151  CB         3.0480   11.3000   20.9100 C.3   127  GLN127      0.0381
    152  CG         2.3880   11.7910   19.6980 C.3   127  GLN127      0.0905
    153  CD         3.2230   12.8230   18.8890 C.2   127  GLN127      0.2608
    154  OE1        4.0470   12.4580   18.0270 O.2   127  GLN127     -0.2717
    155  NE2        2.9820   14.1110   19.1620 N.am  127  GLN127     -0.0878
    156  N          2.5540    8.0260   20.1630 N.am  128  ASN128     -0.1974
    157  CA         1.8770    6.7780   20.5450 C.3   128  ASN128      0.1688
    158  C          2.6620    5.4680   20.3710 C.2   128  ASN128      0.2292
    159  O          2.0910    4.3720   20.3640 O.2   128  ASN128     -0.2864
    160  CB         0.4660    6.7270   20.0250 C.3   128  ASN128      0.1181
    161  CG         0.3960    6.8260   18.5870 C.2   128  ASN128      0.2629
    162  OD1        1.1940    6.1910   17.8950 O.2   128  ASN128     -0.2716
    163  ND2       -0.6300    7.5570   18.0820 N.am  128  ASN128     -0.0877
    164  N          5.4120    3.5410   22.4570 N.3   130  LEU130     -0.1245
    165  CA         5.8530    3.5610   23.8330 C.3   130  LEU130      0.1561
    166  C          6.9340    2.5460   24.0680 C.2   130  LEU130      0.2260
    167  O          6.9270    1.4670   23.4910 O.2   130  LEU130     -0.2867
    168  CB         4.6540    3.2950   24.7680 C.3   130  LEU130      0.0270
    169  CG         3.4340    4.2130   24.5940 C.3   130  LEU130      0.0019
    170  CD1        2.3530    3.8760   25.6380 C.3   130  LEU130      0.0001
    171  CD2        3.8390    5.6420   24.6960 C.3   130  LEU130      0.0001
    172  N          0.4930    2.0100   20.6390 N.3   140  ALA140     -0.1231
    173  CA        -0.5350    2.4100   21.6050 C.3   140  ALA140      0.1694
    174  C         -1.6700    3.1170   20.8720 C.2   140  ALA140      0.2592
    175  O         -1.4190    3.8080   19.9040 O.2   140  ALA140     -0.2718
    176  CB         0.0350    3.3050   22.6360 C.3   140  ALA140      0.0304
    177  N         -2.8930    2.9910   21.3730 N.am  141  ASP141     -0.1974
    178  CA        -4.1380    3.5560   20.7420 C.3   141  ASP141      0.1709
    179  C         -4.6110    2.7770   19.5040 C.2   141  ASP141      0.2293
    180  O         -5.3440    3.2490   18.6250 O.2   141  ASP141     -0.2864
    181  CB        -4.0090    5.0570   20.5220 C.3   141  ASP141      0.1436
    182  CG        -4.0950    5.8390   21.8560 C.2   141  ASP141      0.3671
    183  OD1       -4.1490    5.1700   22.9270 O.co2 141  ASP141     -0.2456
    184  OD2       -4.1520    7.0990   21.9520 O.co2 141  ASP141     -0.2456
@<TRIPOS>BOND
     1   162   161    2
     2   154   153    2
     3   163   161   am
     4   161   160    1
     5   180   179    2
     6   153   155   am
     7   153   152    1
     8   147   148    1
     9   179   178    1
    10   152   151    1
    11   175   174    2
    12   160   157    1
    13   156   157    1
    14   156   149   am
    15   159   158    2
    16   158   157    1
    17   181   178    1
    18   181   182    1
    19   172   173    1
    20   148   151    1
    21   148   149    1
    22   178   177    1
    23   174   177   am
    24   174   173    1
    25   149   150    2
    26   173   176    1
    27   182   184   ar
    28   182   183   ar
    29   164   165    1
    30    42    43    2
    31    42    41    1
    32    64    63    1
    33   138   139    1
    34    65    66    1
    35    41    40    1
    36   167   166    2
    37   132   133    2
    38   132   131    1
    39   136   135   ar
    40   165   166    1
    41   165   168    1
    42    34    33    2
    43   140   139    1
    44   140   141    2
    45   134   135    1
    46   134   131    1
    47   139   142    1
    48   135   137   ar
    49    63    62    1
    50    68    67    2
    51   131   130    1
    52    71    69    1
    53    66    69    1
    54    66    67    1
    55   169   171    1
    56   169   168    1
    57   169   170    1
    58    40    33   am
    59    69    70    1
    60    33    32    1
    61    80    82   ar
    62    80    78   ar
    63    82    81   ar
    64    62    61    1
    65   142   143    1
    66   143   144    1
    67   130   123   am
    68   124   123    2
    69    32    35    1
    70    32    31    1
    71    35    36    1
    72    78    77   ar
    73    81    79   ar
    74   123   122    1
    75    61    60    1
    76    31    29   am
    77   129   127   am
    78   110   108    1
    79    38    37   ar
    80   144   145    1
    81   126   127    1
    82   126   125    1
    83   145   146    1
    84    50    48    1
    85    77    79   ar
    86    77    76    1
    87    91    89   ar
    88    37    36    1
    89    37    39   ar
    90   127   128    2
    91   109   108    1
    92   125   122    1
    93    60    57    1
    94   122   121    1
    95    29    28    1
    96    29    30    2
    97   108   107    1
    98   107   104    1
    99    28    27    2
   100    76    73    1
   101    89    90   ar
   102    89    88    1
   103    48    49    1
   104    48    45    1
   105   121   113   am
   106    57    58    1
   107    57    56    1
   108    22    21    2
   109    44    45    1
   110    25    23    1
   111    58    59    2
   112    27    21    1
   113    73    72    1
   114    73    74    1
   115    88    87    1
   116    86    85    2
   117   104   105    1
   118   104   103    1
   119    45    46    1
   120    21    20    1
   121   113   114    2
   122   113   112    1
   123   105   106    2
   124   105   111   am
   125    83    74   am
   126    83    84    1
   127   103    94   am
   128    87    84    1
   129   111   112    1
   130    18    17    1
   131    74    75    2
   132    85    84    1
   133    85    92   am
   134    23    20    1
   135    23    24    1
   136    55    52    1
   137   112   115    1
   138    94    93    1
   139    94    95    2
   140    46    47    2
   141    20    19    1
   142    17    16    1
   143    54    53    2
   144    93    92    1
   145    93    96    1
   146    26    24    1
   147    16    15    1
   148   115   116    1
   149    53    52    1
   150    19    12   am
   151    52    51    1
   152    15    14    1
   153    98   100   ar
   154    98    97   ar
   155    13    12    2
   156   100   102   ar
   157    12    11    1
   158    96    97    1
   159    97    99   ar
   160   116   117   ar
   161   116   118   ar
   162   117   119   ar
   163   102   101   ar
   164    14    11    1
   165    99   101   ar
   166    11    10    1
   167   118   120   ar
   168   119   120   ar
   169    10     3   am
   170     4     3    2
   171     8     7   ar
   172     3     2    1
   173     6     7    1
   174     6     5    1
   175     7     9   ar
   176     5     2    1
   177     2     1    1
