@<TRIPOS>MOLECULE
tmp/2a0nA00.pdb
 138 128 0 0 0
SMALL
GASTEIGER

@<TRIPOS>ATOM
      1  N         21.0570   84.1710   41.5700 N.3     9  CYS9       -0.1235
      2  CA        22.1650   84.3760   40.6850 C.3     9  CYS9        0.1677
      3  C         22.7790   85.7370   40.9790 C.2     9  CYS9        0.2270
      4  O         22.0740   86.7910   41.0480 O.2     9  CYS9       -0.2867
      5  CB        21.6920   84.2980   39.2280 C.3     9  CYS9        0.0956
      6  SG        23.0460   84.6180   38.0640 S.3     9  CYS9       -0.0801
      7  N         25.6530   88.1770   39.5620 N.3    11  ASP11      -0.1239
      8  CA        26.6120   88.5540   38.5410 C.3    11  ASP11       0.1674
      9  C         27.6530   89.3940   39.1860 C.2    11  ASP11       0.2266
     10  O         27.3260   90.3860   39.8500 O.2    11  ASP11      -0.2867
     11  CB        25.8880   89.2890   37.4020 C.3    11  ASP11       0.1410
     12  CG        24.9270   88.3930   36.6720 C.2    11  ASP11       0.3668
     13  OD1       25.3920   87.4430   35.9790 O.co2  11  ASP11      -0.2456
     14  OD2       23.6740   88.5410   36.7640 O.co2  11  ASP11      -0.2456
     15  N         27.4130   93.1570   40.2520 N.3    18  VAL18      -0.1245
     16  CA        27.1760   94.0660   39.1410 C.3    18  VAL18       0.1561
     17  C         25.7910   94.6950   39.3280 C.2    18  VAL18       0.2260
     18  O         24.7930   94.0010   39.3850 O.2    18  VAL18      -0.2867
     19  CB        27.3180   93.3320   37.7740 C.3    18  VAL18       0.0252
     20  CG1       26.8400   94.2000   36.6270 C.3    18  VAL18       0.0019
     21  CG2       28.7630   92.9030   37.5660 C.3    18  VAL18       0.0019
     22  N         28.3040   84.2750   38.6500 N.3    50  LEU50      -0.1245
     23  CA        28.7830   84.3270   37.2890 C.3    50  LEU50       0.1561
     24  C         29.6740   85.5430   37.1450 C.2    50  LEU50       0.2260
     25  O         29.2150   86.6640   37.3070 O.2    50  LEU50      -0.2867
     26  CB        27.6200   84.4000   36.3140 C.3    50  LEU50       0.0270
     27  CG        26.6710   83.1670   36.3260 C.3    50  LEU50       0.0019
     28  CD1       25.6180   83.2390   35.2300 C.3    50  LEU50       0.0001
     29  CD2       27.4090   81.8630   36.1840 C.3    50  LEU50       0.0001
     30  N         27.8280   84.4400   25.1820 N.3   144  SER144     -0.1217
     31  CA        26.8220   85.3190   25.8040 C.3   144  SER144      0.1889
     32  C         25.7310   85.7870   24.8090 C.2   144  SER144      0.2288
     33  O         25.4030   86.9660   24.7360 O.2   144  SER144     -0.2866
     34  CB        27.5290   86.5260   26.4080 C.3   144  SER144      0.2089
     35  OG        28.5530   86.0880   27.3070 O.3   144  SER144     -0.2183
     36  N         21.2940   74.3440   33.2230 N.3   169  LEU169     -0.1245
     37  CA        20.8630   75.6800   33.5500 C.3   169  LEU169      0.1561
     38  C         20.3460   76.2660   32.2260 C.2   169  LEU169      0.2260
     39  O         21.1460   76.6900   31.3680 O.2   169  LEU169     -0.2867
     40  CB        21.9610   76.5300   34.1610 C.3   169  LEU169      0.0270
     41  CG        21.5940   77.8140   34.8560 C.3   169  LEU169      0.0019
     42  CD1       22.8690   78.3260   35.5780 C.3   169  LEU169      0.0001
     43  CD2       21.0810   78.8470   33.9620 C.3   169  LEU169      0.0001
     44  N         18.5650   78.8990   30.0420 N.3   171  THR171     -0.1218
     45  CA        18.2330   80.3120   29.9650 C.3   171  THR171      0.1862
     46  C         17.5860   80.5860   28.6340 C.2   171  THR171      0.2287
     47  O         18.1530   80.3230   27.5760 O.2   171  THR171     -0.2866
     48  CB        19.4850   81.2140   30.1070 C.3   171  THR171      0.1770
     49  OG1       20.0730   81.0060   31.4180 O.3   171  THR171     -0.2211
     50  CG2       19.0660   82.6930   30.0810 C.3   171  THR171      0.0375
     51  N         14.9770   86.4420   28.8960 N.3   176  ASP176     -0.1225
     52  CA        15.9980   86.9250   29.7700 C.3   176  ASP176      0.1805
     53  C         15.9640   88.4560   29.7690 C.2   176  ASP176      0.2598
     54  O         15.7250   89.0940   28.7380 O.2   176  ASP176     -0.2718
     55  CB        17.2410   86.4400   29.1000 C.3   176  ASP176      0.1424
     56  CG        18.4350   86.5680   29.9780 C.2   176  ASP176      0.3668
     57  OD1       18.2810   86.5930   31.2150 O.co2 176  ASP176     -0.2456
     58  OD2       19.5570   86.6140   29.4180 O.co2 176  ASP176     -0.2456
     59  N         16.0930   89.0480   30.9410 N.am  177  GLY177     -0.1942
     60  CA        16.0280   90.4870   31.0780 C.3   177  GLY177      0.2014
     61  C         14.6280   91.0810   31.1300 C.2   177  GLY177      0.2640
     62  O         14.5020   92.2970   31.3460 O.2   177  GLY177     -0.2714
     63  N         13.5770   90.2740   30.9130 N.am  178  THR178     -0.1936
     64  CA        12.2520   90.8010   30.8940 C.3   178  THR178      0.2028
     65  C         11.6640   90.3350   32.2280 C.2   178  THR178      0.2642
     66  O         12.2880   89.5680   32.9990 O.2   178  THR178     -0.2714
     67  CB        11.4000   90.2650   29.7200 C.3   178  THR178      0.1808
     68  OG1       11.0580   88.8830   29.9420 O.3   178  THR178     -0.2208
     69  CG2       12.1380   90.3500   28.3410 C.3   178  THR178      0.0379
     70  N         10.4580   90.7490   32.4620 N.am  179  LYS179     -0.1977
     71  CA         9.7990   90.3420   33.6730 C.3   179  LYS179      0.1596
     72  C          8.4380   89.7620   33.3260 C.2   179  LYS179      0.2287
     73  O          7.5380   89.8270   34.1360 O.2   179  LYS179     -0.2864
     74  CB         9.6810   91.5690   34.5970 C.3   179  LYS179      0.0298
     75  CG        11.0350   92.0540   35.0700 C.3   179  LYS179      0.0038
     76  CD        10.9280   93.3010   35.9260 C.3   179  LYS179      0.0206
     77  CE        12.2750   93.6490   36.5690 C.3   179  LYS179      0.1093
     78  NZ        12.2370   94.9870   37.2440 N.3   179  LYS179     -0.1314
     79  N         15.8860   79.7290   33.9860 N.3   201  SER201     -0.1202
     80  CA        16.5180   81.0160   34.0860 C.3   201  SER201      0.2020
     81  C         16.0310   81.9810   33.0090 C.2   201  SER201      0.2619
     82  O         15.9540   81.5960   31.8390 O.2   201  SER201     -0.2717
     83  CB        18.0140   80.8620   33.9810 C.3   201  SER201      0.2103
     84  OG        18.6190   82.1340   33.9770 O.3   201  SER201     -0.2182
     85  N         15.7260   83.2200   33.4180 N.am  202  GLY202     -0.1942
     86  CA        15.3240   84.2640   32.4840 C.3   202  GLY202      0.2014
     87  C         13.8160   84.5010   32.4690 C.2   202  GLY202      0.2639
     88  O         13.0800   83.6320   32.0740 O.2   202  GLY202     -0.2714
     89  N         13.4100   85.7030   32.8520 N.am  203  GLY203     -0.1939
     90  CA        12.0310   86.1500   32.7250 C.3   203  GLY203      0.2014
     91  C         11.2590   86.3590   34.0090 C.2   203  GLY203      0.2638
     92  O         10.1850   86.9850   34.0010 O.2   203  GLY203     -0.2714
     93  N         11.8000   85.9150   35.1360 N.am  204  ALA204     -0.1977
     94  CA        11.0390   86.0100   36.4040 C.3   204  ALA204      0.1597
     95  C         10.7470   87.4340   36.7830 C.2   204  ALA204      0.2287
     96  O         11.6810   88.2310   36.8610 O.2   204  ALA204     -0.2864
     97  CB        11.8210   85.3490   37.5350 C.3   204  ALA204      0.0319
     98  N         15.8640   80.0770   38.9570 N.3   222  LEU222     -0.1231
     99  CA        16.9490   81.0190   39.2000 C.3   222  LEU222      0.1693
    100  C         16.4850   82.4250   38.8940 C.2   222  LEU222      0.2592
    101  O         15.7900   82.6330   37.8900 O.2   222  LEU222     -0.2718
    102  CB        18.1200   80.6970   38.2570 C.3   222  LEU222      0.0284
    103  CG        19.4520   81.4680   38.3630 C.3   222  LEU222      0.0019
    104  CD1       20.1320   81.1420   39.6850 C.3   222  LEU222      0.0001
    105  CD2       20.3830   81.1840   37.1780 C.3   222  LEU222      0.0001
    106  N         16.8460   83.3900   39.7380 N.am  223  ALA223     -0.1966
    107  CA        16.5610   84.7810   39.4870 C.3   223  ALA223      0.1728
    108  C         17.6470   85.6260   40.1380 C.2   223  ALA223      0.2616
    109  O         18.4380   85.1360   40.9240 O.2   223  ALA223     -0.2715
    110  CB        15.1790   85.2050   39.9160 C.3   223  ALA223      0.0334
    111  N         17.6900   86.8850   39.7310 N.am  224  ALA224     -0.1963
    112  CA        18.7360   87.8240   40.1510 C.3   224  ALA224      0.1728
    113  C         18.1130   89.1250   40.6490 C.2   224  ALA224      0.2617
    114  O         17.7390   89.2500   41.8200 O.2   224  ALA224     -0.2715
    115  CB        19.7610   88.0500   38.9910 C.3   224  ALA224      0.0334
    116  N         17.9330   90.0980   39.7580 N.am  225  SER225     -0.1936
    117  CA        17.5080   91.4460   40.2090 C.3   225  SER225      0.2055
    118  C         16.1610   91.4750   40.9270 C.2   225  SER225      0.2642
    119  O         15.9700   92.3160   41.8110 O.2   225  SER225     -0.2714
    120  CB        17.4950   92.4410   39.0430 C.3   225  SER225      0.2130
    121  OG        16.5700   92.0010   38.0790 O.3   225  SER225     -0.2179
    122  N         15.2350   90.5550   40.6190 N.am  226  VAL226     -0.1977
    123  CA        13.9710   90.5290   41.3740 C.3   226  VAL226      0.1596
    124  C         14.1980   90.2970   42.8660 C.2   226  VAL226      0.2287
    125  O         13.4710   90.7830   43.7020 O.2   226  VAL226     -0.2864
    126  CB        12.8930   89.5200   40.8430 C.3   226  VAL226      0.0276
    127  CG1       12.4800   89.8980   39.4180 C.3   226  VAL226      0.0022
    128  CG2       13.3640   88.0380   40.9350 C.3   226  VAL226      0.0022
    129  N         17.4820   90.9080   44.2320 N.3   228  HIS228     -0.1241
    130  CA        18.4470   91.9370   44.6270 C.3   228  HIS228      0.1621
    131  C         17.7660   93.2780   44.8910 C.2   228  HIS228      0.2264
    132  O         18.1760   94.0120   45.7970 O.2   228  HIS228     -0.2867
    133  CB        19.5520   92.1300   43.5760 C.3   228  HIS228      0.0745
    134  CG        20.2560   90.8730   43.1870 C.ar  228  HIS228      0.0817
    135  ND1       20.3650   89.7850   44.0320 N.ar  228  HIS228     -0.2268
    136  CD2       20.9140   90.5400   42.0440 C.ar  228  HIS228      0.1154
    137  CE1       21.0300   88.8230   43.3990 C.ar  228  HIS228      0.1986
    138  NE2       21.3630   89.2460   42.1900 N.ar  228  HIS228     -0.2212
@<TRIPOS>BOND
     1    33    32    2
     2    32    31    1
     3    30    31    1
     4    31    34    1
     5    34    35    1
     6    47    46    2
     7    69    67    1
     8    46    45    1
     9    54    53    2
    10    51    52    1
    11    55    52    1
    12    55    56    1
    13    58    56   ar
    14    67    68    1
    15    67    64    1
    16    53    52    1
    17    53    59   am
    18    45    44    1
    19    45    48    1
    20    56    57   ar
    21    50    48    1
    22    48    49    1
    23    64    63    1
    24    64    65    1
    25    63    61   am
    26    59    60    1
    27    60    61    1
    28    61    62    2
    29    39    38    2
    30    82    81    2
    31    88    87    2
    32    38    37    1
    33    65    70   am
    34    65    66    2
    35    70    71    1
    36    87    86    1
    37    87    89   am
    38    86    85    1
    39    90    89    1
    40    90    91    1
    41    81    85   am
    42    81    80    1
    43    36    37    1
    44    72    71    1
    45    72    73    2
    46    37    40    1
    47    71    74    1
    48    43    41    1
    49    84    83    1
    50    83    80    1
    51    79    80    1
    52    92    91    2
    53    91    93   am
    54    40    41    1
    55    74    75    1
    56    41    42    1
    57    75    76    1
    58    93    94    1
    59    28    27    1
    60    76    77    1
    61    13    12   ar
    62    29    27    1
    63    26    27    1
    64    26    23    1
    65    94    95    1
    66    94    97    1
    67    77    78    1
    68    20    19    1
    69    12    14   ar
    70    12    11    1
    71    95    96    2
    72    24    23    1
    73    24    25    2
    74   105   103    1
    75    23    22    1
    76    11     8    1
    77    21    19    1
    78    19    16    1
    79   101   100    2
    80     6     5    1
    81   121   120    1
    82   102   103    1
    83   102    99    1
    84   103   104    1
    85     8     9    1
    86     8     7    1
    87   100    99    1
    88   100   106   am
    89    98    99    1
    90   115   112    1
    91   120   117    1
    92    16    17    1
    93    16    15    1
    94     9    10    2
    95     5     2    1
    96    17    18    2
    97   127   126    1
    98   107   106    1
    99   107   110    1
   100   107   108    1
   101   111   108   am
   102   111   112    1
   103   116   117    1
   104   116   113   am
   105   108   109    2
   106   112   113    1
   107   117   118    1
   108   122   118   am
   109   122   123    1
   110   113   114    2
   111     2     3    1
   112     2     1    1
   113   126   128    1
   114   126   123    1
   115   118   119    2
   116     3     4    2
   117   123   124    1
   118   136   138   ar
   119   136   134   ar
   120   138   137   ar
   121   124   125    2
   122   134   133    1
   123   134   135   ar
   124   137   135   ar
   125   133   130    1
   126   129   130    1
   127   130   131    1
   128   131   132    2
