@<TRIPOS>MOLECULE
tmp/2a0sA00.pdb
 87 82 0 0 0
SMALL
GASTEIGER

@<TRIPOS>ATOM
      1  N        -13.0950  -21.6650   -8.1950 N.3    19  HIS19      -0.1241
      2  CA       -13.7370  -21.8210   -6.8900 C.3    19  HIS19       0.1621
      3  C        -15.1810  -21.3150   -6.9210 C.2    19  HIS19       0.2264
      4  O        -15.6260  -20.7380   -7.9160 O.2    19  HIS19      -0.2867
      5  CB       -12.9300  -21.0970   -5.7960 C.3    19  HIS19       0.0745
      6  CG       -13.4190  -19.7150   -5.4910 C.ar   19  HIS19       0.0817
      7  ND1      -13.3990  -18.6950   -6.4170 N.ar   19  HIS19      -0.2268
      8  CD2      -13.9440  -19.1870   -4.3610 C.ar   19  HIS19       0.1154
      9  CE1      -13.8910  -17.5980   -5.8680 C.ar   19  HIS19       0.1986
     10  NE2      -14.2290  -17.8690   -4.6220 N.ar   19  HIS19      -0.2212
     11  N        -17.9320  -19.6510   -3.6020 N.3    21  ILE21      -0.1245
     12  CA       -18.2860  -19.4580   -2.2010 C.3    21  ILE21       0.1561
     13  C        -19.5990  -20.1660   -1.8980 C.2    21  ILE21       0.2260
     14  O        -20.5660  -20.0560   -2.6550 O.2    21  ILE21      -0.2867
     15  CB       -18.3940  -17.9480   -1.8310 C.3    21  ILE21       0.0252
     16  CG1      -17.0270  -17.2530   -1.9450 C.3    21  ILE21       0.0019
     17  CG2      -19.0020  -17.7510   -0.4330 C.3    21  ILE21       0.0019
     18  CD1      -15.9360  -17.8350   -1.0600 C.3    21  ILE21       0.0001
     19  N        -22.8690  -19.4320   -4.7930 N.3    28  GLU28      -0.1245
     20  CA       -22.6080  -18.7890   -6.0800 C.3    28  GLU28       0.1567
     21  C        -22.1580  -19.8000   -7.1350 C.2    28  GLU28       0.2260
     22  O        -21.7640  -20.9240   -6.8080 O.2    28  GLU28      -0.2867
     23  CB       -21.5920  -17.6480   -5.9330 C.3    28  GLU28       0.0388
     24  CG       -20.1840  -18.0840   -5.5430 C.3    28  GLU28       0.1160
     25  CD       -19.2700  -16.9190   -5.1990 C.2    28  GLU28       0.3649
     26  OE1      -19.7550  -15.7720   -5.0890 O.co2  28  GLU28      -0.2457
     27  OE2      -18.0560  -17.1560   -5.0310 O.co2  28  GLU28      -0.2457
     28  N        -16.7120  -20.1700  -10.8350 N.3    31  HIS31      -0.1241
     29  CA       -15.9190  -19.2050  -11.5850 C.3    31  HIS31       0.1621
     30  C        -14.4560  -19.3360  -11.1710 C.2    31  HIS31       0.2264
     31  O        -14.0630  -20.3500  -10.5960 O.2    31  HIS31      -0.2867
     32  CB       -16.4390  -17.7800  -11.3640 C.3    31  HIS31       0.0745
     33  CG       -16.3790  -17.3220   -9.9400 C.ar   31  HIS31       0.0817
     34  ND1      -17.2480  -17.7790   -8.9730 N.ar   31  HIS31      -0.2268
     35  CD2      -15.5580  -16.4410   -9.3220 C.ar   31  HIS31       0.1154
     36  CE1      -16.9610  -17.2030   -7.8200 C.ar   31  HIS31       0.1986
     37  NE2      -15.9410  -16.3850   -8.0050 N.ar   31  HIS31      -0.2212
     38  N        -10.3530  -16.9780  -10.5360 N.3    33  HIS33      -0.1241
     39  CA        -9.6020  -15.7450  -10.3120 C.3    33  HIS33       0.1621
     40  C         -8.1110  -15.9300  -10.5580 C.2    33  HIS33       0.2264
     41  O         -7.5830  -17.0380  -10.4380 O.2    33  HIS33      -0.2867
     42  CB        -9.7880  -15.2560   -8.8730 C.3    33  HIS33       0.0745
     43  CG       -11.1970  -14.8940   -8.5290 C.ar   33  HIS33       0.0817
     44  ND1      -11.7590  -13.6830   -8.8700 N.ar   33  HIS33      -0.2268
     45  CD2      -12.1570  -15.5820   -7.8710 C.ar   33  HIS33       0.1154
     46  CE1      -13.0070  -13.6420   -8.4390 C.ar   33  HIS33       0.1986
     47  NE2      -13.2720  -14.7810   -7.8260 N.ar   33  HIS33      -0.2212
     48  N        -12.8820  -18.3770    0.6740 N.3   116  SER116     -0.1202
     49  CA       -12.8560  -16.9190    0.7060 C.3   116  SER116      0.2020
     50  C        -11.4170  -16.4160    0.7280 C.2   116  SER116      0.2619
     51  O        -10.5010  -17.1490    1.1090 O.2   116  SER116     -0.2717
     52  CB       -13.6260  -16.3910    1.9200 C.3   116  SER116      0.2103
     53  OG       -13.0100  -16.7880    3.1330 O.3   116  SER116     -0.2182
     54  N        -11.2280  -15.1640    0.3180 N.am  117  THR117     -0.1938
     55  CA        -9.9070  -14.5410    0.2990 C.3   117  THR117      0.2028
     56  C         -9.2990  -14.5040    1.7080 C.2   117  THR117      0.2642
     57  O         -8.0940  -14.7110    1.8800 O.2   117  THR117     -0.2714
     58  CB        -9.9660  -13.1170   -0.3070 C.3   117  THR117      0.1808
     59  OG1      -10.8450  -13.1110   -1.4400 O.3   117  THR117     -0.2208
     60  CG2       -8.5920  -12.6710   -0.7590 C.3   117  THR117      0.0379
     61  N        -10.1510  -14.2630    2.7060 N.am  118  GLU118     -0.1976
     62  CA        -9.7490  -14.2500    4.1130 C.3   118  GLU118      0.1602
     63  C         -9.1680  -15.5900    4.5710 C.2   118  GLU118      0.2287
     64  O         -8.0880  -15.6300    5.1630 O.2   118  GLU118     -0.2864
     65  CB       -10.9320  -13.8670    5.0110 C.3   118  GLU118      0.0415
     66  CG       -11.3860  -12.4130    4.9000 C.3   118  GLU118      0.1163
     67  CD       -12.5240  -12.2030    3.9070 C.2   118  GLU118      0.3649
     68  OE1      -12.5320  -12.8500    2.8370 O.co2 118  GLU118     -0.2457
     69  OE2      -13.4120  -11.3730    4.1980 O.co2 118  GLU118     -0.2457
     70  N         -8.1210  -11.4430   -4.5080 N.3   151  GLU151     -0.1245
     71  CA        -9.0030  -12.2110   -5.3800 C.3   151  GLU151      0.1567
     72  C         -9.0110  -11.5410   -6.7500 C.2   151  GLU151      0.2260
     73  O         -9.0520  -12.2050   -7.7860 O.2   151  GLU151     -0.2867
     74  CB       -10.4160  -12.2370   -4.7950 C.3   151  GLU151      0.0388
     75  CG       -11.2700  -13.4180   -5.2380 C.3   151  GLU151      0.1160
     76  CD       -12.6490  -13.4300   -4.5930 C.2   151  GLU151      0.3649
     77  OE1      -13.1860  -12.3380   -4.3020 O.co2 151  GLU151     -0.2457
     78  OE2      -13.2010  -14.5330   -4.3820 O.co2 151  GLU151     -0.2457
     79  N        -10.1280   -6.3900   -4.8810 N.3   155  GLN155     -0.1245
     80  CA       -10.5090   -7.0110   -3.6080 C.3   155  GLN155      0.1566
     81  C         -9.3370   -7.7270   -2.9360 C.2   155  GLN155      0.2260
     82  O         -8.8180   -8.7130   -3.4640 O.2   155  GLN155     -0.2867
     83  CB       -11.6660   -7.9910   -3.8200 C.3   155  GLN155      0.0367
     84  CG       -12.9550   -7.3490   -4.3150 C.3   155  GLN155      0.0905
     85  CD       -13.9980   -8.3670   -4.7500 C.2   155  GLN155      0.2608
     86  OE1      -13.9380   -9.5400   -4.3770 O.2   155  GLN155     -0.2717
     87  NE2      -14.9630   -7.9180   -5.5420 N.am  155  GLN155     -0.0878
@<TRIPOS>BOND
     1    29    32    1
     2    29    30    1
     3    29    28    1
     4    32    33    1
     5    30    31    2
     6    40    41    2
     7    40    39    1
     8    38    39    1
     9    39    42    1
    10    33    35   ar
    11    33    34   ar
    12    35    37   ar
    13    34    36   ar
    14    42    43    1
    15    44    43   ar
    16    44    46   ar
    17    43    45   ar
    18    46    47   ar
    19     1     2    1
    20    37    36   ar
    21     4     3    2
    22    45    47   ar
    23    73    72    2
    24    21    22    2
    25    21    20    1
    26     3     2    1
    27     2     5    1
    28    72    71    1
    29     7     9   ar
    30     7     6   ar
    31    20    23    1
    32    20    19    1
    33    23    24    1
    34     9    10   ar
    35     5     6    1
    36    24    25    1
    37    87    85   am
    38     6     8   ar
    39    71    74    1
    40    71    70    1
    41    75    74    1
    42    75    76    1
    43    25    26   ar
    44    25    27   ar
    45    79    80    1
    46    85    86    2
    47    85    84    1
    48    10     8   ar
    49    76    78   ar
    50    76    77   ar
    51    84    83    1
    52    83    80    1
    53    80    81    1
    54    11    12    1
    55    82    81    2
    56    14    13    2
    57    12    13    1
    58    12    15    1
    59    16    15    1
    60    16    18    1
    61    15    17    1
    62    59    58    1
    63    60    58    1
    64    58    55    1
    65    55    54    1
    66    55    56    1
    67    54    50   am
    68    48    49    1
    69    49    50    1
    70    49    52    1
    71    50    51    2
    72    56    57    2
    73    56    61   am
    74    52    53    1
    75    61    62    1
    76    68    67   ar
    77    67    69   ar
    78    67    66    1
    79    62    63    1
    80    62    65    1
    81    63    64    2
    82    66    65    1
