@<TRIPOS>MOLECULE
tmp/2a0tA00.pdb
 99 94 0 0 0
SMALL
GASTEIGER

@<TRIPOS>ATOM
      1  N         -2.1160   -6.2480  -20.5530 N.3    57  ARG57      -0.1231
      2  CA        -0.7310   -6.1050  -20.9920 C.3    57  ARG57       0.1694
      3  C         -0.6390   -5.9270  -22.5080 C.2    57  ARG57       0.2592
      4  O          0.4520   -5.7620  -23.0530 O.2    57  ARG57      -0.2718
      5  CB         0.0870   -7.3250  -20.5660 C.3    57  ARG57       0.0321
      6  CG        -0.1700   -7.7640  -19.1320 C.3    57  ARG57       0.0489
      7  CD        -0.0410   -9.2700  -18.9760 C.3    57  ARG57       0.2205
      8  NE        -0.7750   -9.9960  -20.0110 N.pl3  57  ARG57      -0.0865
      9  CZ        -0.5500  -11.2700  -20.3240 C.cat  57  ARG57       0.5346
     10  NH1        0.3830  -11.9630  -19.6830 N.pl3  57  ARG57       0.1354
     11  NH2       -1.2610  -11.8520  -21.2800 N.pl3  57  ARG57       0.1354
     12  N         -1.7840   -5.9630  -23.1870 N.am   58  ASN58      -0.1974
     13  CA        -1.8140   -5.8070  -24.6350 C.3    58  ASN58       0.1688
     14  C         -1.8340   -4.3310  -25.0260 C.2    58  ASN58       0.2292
     15  O         -2.5670   -3.5340  -24.4390 O.2    58  ASN58      -0.2864
     16  CB        -3.0390   -6.5120  -25.2190 C.3    58  ASN58       0.1181
     17  CG        -2.7860   -7.0460  -26.6140 C.2    58  ASN58       0.2629
     18  OD1       -3.5360   -6.7600  -27.5470 O.2    58  ASN58      -0.2716
     19  ND2       -1.7220   -7.8280  -26.7650 N.am   58  ASN58      -0.0877
     20  N          2.4520  -12.1740  -15.8640 N.3    69  SER69      -0.1202
     21  CA         1.9240  -13.4870  -16.2140 C.3    69  SER69       0.2020
     22  C          0.5480  -13.7120  -15.5910 C.2    69  SER69       0.2619
     23  O         -0.3450  -14.2750  -16.2240 O.2    69  SER69      -0.2717
     24  CB         2.8940  -14.5790  -15.7550 C.3    69  SER69       0.2103
     25  OG         2.5900  -15.0210  -14.4430 O.3    69  SER69      -0.2182
     26  N          0.3880  -13.2730  -14.3480 N.am   70  ARG70      -0.1965
     27  CA        -0.8750  -13.4310  -13.6340 C.3    70  ARG70       0.1729
     28  C         -2.0120  -12.6860  -14.3340 C.2    70  ARG70       0.2616
     29  O         -3.1850  -12.9960  -14.1260 O.2    70  ARG70      -0.2715
     30  CB        -0.7310  -12.9310  -12.1940 C.3    70  ARG70       0.0348
     31  CG        -0.7530  -14.0440  -11.1580 C.3    70  ARG70       0.0492
     32  CD         0.6220  -14.6670  -10.9790 C.3    70  ARG70       0.2205
     33  NE         0.7490  -15.9300  -11.7040 N.pl3  70  ARG70      -0.0865
     34  CZ         1.8860  -16.6140  -11.8050 C.cat  70  ARG70       0.5346
     35  NH1        2.9950  -16.1630  -11.2320 N.pl3  70  ARG70       0.1354
     36  NH2        1.9150  -17.7550  -12.4820 N.pl3  70  ARG70       0.1354
     37  N         -1.6640  -11.7000  -15.1570 N.am   71  LEU71      -0.1963
     38  CA        -2.6670  -10.9160  -15.8730 C.3    71  LEU71       0.1728
     39  C         -2.8190  -11.3910  -17.3120 C.2    71  LEU71       0.2617
     40  O         -1.8910  -11.9500  -17.8980 O.2    71  LEU71      -0.2715
     41  CB        -2.3240   -9.4280  -15.8580 C.3    71  LEU71       0.0311
     42  CG        -2.3930   -8.7480  -14.4870 C.3    71  LEU71       0.0022
     43  CD1       -1.5450   -9.4910  -13.4660 C.3    71  LEU71       0.0001
     44  CD2       -1.9510   -7.2960  -14.5940 C.3    71  LEU71       0.0001
     45  N         -4.0020  -11.1690  -17.8700 N.am   72  SER72      -0.1936
     46  CA        -4.2940  -11.5810  -19.2450 C.3    72  SER72       0.2055
     47  C         -4.1770  -10.4130  -20.2250 C.2    72  SER72       0.2643
     48  O         -4.0790   -9.2560  -19.8160 O.2    72  SER72      -0.2714
     49  CB        -5.6990  -12.1800  -19.3250 C.3    72  SER72       0.2130
     50  OG        -6.6910  -11.1830  -19.1440 O.3    72  SER72      -0.2179
     51  N         -4.2060  -10.7280  -21.5290 N.am   73  ASN73      -0.1971
     52  CA        -4.1230   -9.7040  -22.5780 C.3    73  ASN73       0.1688
     53  C         -5.0400   -8.5420  -22.2290 C.2    73  ASN73       0.2292
     54  O         -4.6120   -7.3950  -22.1390 O.2    73  ASN73      -0.2864
     55  CB        -4.5240  -10.3000  -23.9280 C.3    73  ASN73       0.1181
     56  CG        -3.3350  -10.5150  -24.8440 C.2    73  ASN73       0.2629
     57  OD1       -2.2590  -10.9150  -24.3990 O.2    73  ASN73      -0.2716
     58  ND2       -3.5230  -10.2510  -26.1310 N.am   73  ASN73      -0.0877
     59  N         -8.1080  -13.8430  -16.9930 N.3    93  THR93      -0.1203
     60  CA        -8.0490  -15.2900  -16.8270 C.3    93  THR93       0.1994
     61  C         -7.9890  -15.6590  -15.3470 C.2    93  THR93       0.2617
     62  O         -8.7640  -16.4840  -14.8630 O.2    93  THR93      -0.2717
     63  CB        -6.8300  -15.8550  -17.5640 C.3    93  THR93       0.1784
     64  OG1       -7.0010  -15.7470  -18.9660 O.3    93  THR93      -0.2211
     65  CG2       -6.5470  -17.3090  -17.2480 C.3    93  THR93       0.0376
     66  N         -7.0420  -15.0430  -14.6430 N.am   94  ASN94      -0.1974
     67  CA        -6.8370  -15.2960  -13.2210 C.3    94  ASN94       0.1688
     68  C         -7.9050  -14.6290  -12.3530 C.2    94  ASN94       0.2292
     69  O         -7.9110  -14.7950  -11.1330 O.2    94  ASN94      -0.2864
     70  CB        -5.4550  -14.8190  -12.8100 C.3    94  ASN94       0.1181
     71  CG        -4.5730  -15.9400  -12.3090 C.2    94  ASN94       0.2629
     72  OD1       -5.0510  -16.9140  -11.7290 O.2    94  ASN94      -0.2716
     73  ND2       -3.2740  -15.8030  -12.5310 N.am   94  ASN94      -0.0877
     74  N         -4.6000  -12.4430   -8.4230 N.3   121  VAL121     -0.1231
     75  CA        -4.8300  -13.1860   -7.2080 C.3   121  VAL121      0.1692
     76  C         -4.5190  -14.6670   -7.3780 C.2   121  VAL121      0.2593
     77  O         -4.7880  -15.2670   -8.4180 O.2   121  VAL121     -0.2718
     78  CB        -6.2670  -12.9960   -6.7030 C.3   121  VAL121      0.0266
     79  CG1       -6.5560  -13.9060   -5.5170 C.3   121  VAL121      0.0020
     80  CG2       -6.4790  -11.5370   -6.3370 C.3   121  VAL121      0.0020
     81  N         -3.9180  -15.2260   -6.3410 N.am  122  GLY122     -0.1942
     82  CA        -3.5210  -16.6040   -6.3350 C.3   122  GLY122      0.2014
     83  C         -2.2010  -16.7460   -5.6190 C.2   122  GLY122      0.2638
     84  O         -1.9900  -17.6740   -4.8370 O.2   122  GLY122     -0.2714
     85  N         -1.3280  -15.7790   -5.8730 N.am  123  VAL123     -0.1977
     86  CA        -0.0320  -15.7110   -5.2620 C.3   123  VAL123      0.1596
     87  C          0.0760  -14.3950   -4.4970 C.2   123  VAL123      0.2287
     88  O         -0.1460  -13.3240   -5.0620 O.2   123  VAL123     -0.2864
     89  CB         1.0870  -15.7880   -6.3140 C.3   123  VAL123      0.0276
     90  CG1        2.4060  -16.1850   -5.6700 C.3   123  VAL123      0.0022
     91  CG2        0.7210  -16.7550   -7.4340 C.3   123  VAL123      0.0022
     92  N          1.8460  -11.8850   -6.2810 N.3   126  ASP126     -0.1239
     93  CA         1.4890  -11.6490   -7.6720 C.3   126  ASP126      0.1674
     94  C          0.1750  -10.9120   -7.8510 C.2   126  ASP126      0.2266
     95  O         -0.4990  -11.0570   -8.8700 O.2   126  ASP126     -0.2867
     96  CB         1.4470  -12.9560   -8.4410 C.3   126  ASP126      0.1410
     97  CG         2.7360  -13.7440   -8.3150 C.2   126  ASP126      0.3668
     98  OD1        3.2450  -13.8720   -7.1810 O.co2 126  ASP126     -0.2456
     99  OD2        3.2360  -14.2340   -9.3490 O.co2 126  ASP126     -0.2456
@<TRIPOS>BOND
     1    18    17    2
     2    19    17   am
     3    17    16    1
     4    58    56   am
     5    16    13    1
     6    14    13    1
     7    14    15    2
     8    56    57    2
     9    56    55    1
    10    13    12    1
    11    55    52    1
    12    12     3   am
    13     4     3    2
    14    52    53    1
    15    52    51    1
    16     3     2    1
    17    53    54    2
    18    51    47   am
    19    11     9    1
    20     2     5    1
    21     2     1    1
    22     5     6    1
    23     9     8    2
    24     9    10    1
    25    47    48    2
    26    47    46    1
    27     8     7    1
    28    49    46    1
    29    49    50    1
    30    46    45    1
    31     6     7    1
    32    64    63    1
    33    40    39    2
    34    45    39   am
    35    63    65    1
    36    63    60    1
    37    39    38    1
    38    59    60    1
    39    60    61    1
    40    23    22    2
    41    21    20    1
    42    21    24    1
    43    21    22    1
    44    38    41    1
    45    38    37    1
    46    41    42    1
    47    24    25    1
    48    22    26   am
    49    61    62    2
    50    61    66   am
    51    37    28   am
    52    66    67    1
    53    44    42    1
    54    42    43    1
    55    26    27    1
    56    28    29    2
    57    28    27    1
    58    27    30    1
    59    67    70    1
    60    67    68    1
    61    70    71    1
    62    73    71   am
    63    36    34    1
    64    68    69    2
    65    71    72    2
    66    30    31    1
    67    34    33    2
    68    34    35    1
    69    33    32    1
    70    31    32    1
    71    99    97   ar
    72    95    94    2
    73    96    97    1
    74    96    93    1
    75    74    75    1
    76    77    76    2
    77    97    98   ar
    78    94    93    1
    79    93    92    1
    80    91    89    1
    81    76    75    1
    82    76    81   am
    83    75    78    1
    84    78    80    1
    85    78    79    1
    86    81    82    1
    87    82    83    1
    88    89    90    1
    89    89    86    1
    90    85    83   am
    91    85    86    1
    92    83    84    2
    93    86    87    1
    94    88    87    2
