@<TRIPOS>MOLECULE
tmp/2a0zA08.pdb
 111 102 0 0 0
SMALL
GASTEIGER

@<TRIPOS>ATOM
      1  N        -46.6840  -14.0350   15.7880 N.3   305  LYS305     -0.1245
      2  CA       -45.8860  -14.0680   14.5500 C.3   305  LYS305      0.1561
      3  C        -46.7180  -14.5950   13.3690 C.2   305  LYS305      0.2260
      4  O        -47.2280  -15.7060   13.4260 O.2   305  LYS305     -0.2867
      5  CB       -44.6240  -14.9250   14.7570 C.3   305  LYS305      0.0271
      6  CG       -43.7450  -15.1290   13.5210 C.3   305  LYS305      0.0035
      7  CD       -42.5420  -16.0170   13.8260 C.3   305  LYS305      0.0206
      8  CE       -41.7110  -16.2630   12.5710 C.3   305  LYS305      0.1093
      9  NZ       -40.5100  -17.1100   12.8330 N.3   305  LYS305     -0.1314
     10  N        -43.6470  -10.4440   15.2370 N.3   338  GLU338     -0.1231
     11  CA       -42.8610  -10.5670   14.0090 C.3   338  GLU338      0.1699
     12  C        -43.6160  -10.9400   12.7410 C.2   338  GLU338      0.2592
     13  O        -44.6380  -11.6250   12.7880 O.2   338  GLU338     -0.2718
     14  CB       -41.7170  -11.5700   14.2070 C.3   338  GLU338      0.0402
     15  CG       -40.5920  -11.0720   15.1080 C.3   338  GLU338      0.1161
     16  CD       -39.6540  -12.1760   15.6210 C.2   338  GLU338      0.3649
     17  OE1      -39.7780  -13.3520   15.2000 O.co2 338  GLU338     -0.2457
     18  OE2      -38.7850  -11.8550   16.4650 O.co2 338  GLU338     -0.2457
     19  N        -43.0820  -10.4580   11.6160 N.am  339  ASP339     -0.1974
     20  CA       -43.5810  -10.7010   10.2570 C.3   339  ASP339      0.1709
     21  C        -45.0780  -10.4820    9.9870 C.2   339  ASP339      0.2293
     22  O        -45.8440  -11.4320    9.8620 O.2   339  ASP339     -0.2864
     23  CB       -43.1250  -12.0830    9.7630 C.3   339  ASP339      0.1436
     24  CG       -41.6500  -12.3440   10.0120 C.2   339  ASP339      0.3671
     25  OD1      -40.8030  -11.6160    9.4500 O.co2 339  ASP339     -0.2456
     26  OD2      -41.3420  -13.2760   10.7860 O.co2 339  ASP339     -0.2456
     27  N        -40.1020   -7.5360   27.2240 N.3   358  TYR358     -0.1241
     28  CA       -39.5900   -7.8840   25.8990 C.3   358  TYR358      0.1605
     29  C        -40.6540   -7.6230   24.8380 C.2   358  TYR358      0.2264
     30  O        -41.7940   -8.0840   24.9630 O.2   358  TYR358     -0.2867
     31  CB       -39.1590   -9.3720   25.8620 C.3   358  TYR358      0.0534
     32  CG       -38.6320   -9.9140   24.5230 C.ar  358  TYR358     -0.0201
     33  CD1      -39.5200  -10.2890   23.4810 C.ar  358  TYR358     -0.0009
     34  CD2      -37.2440  -10.0670   24.2910 C.ar  358  TYR358     -0.0009
     35  CE1      -39.0450  -10.7960   22.2420 C.ar  358  TYR358      0.0417
     36  CE2      -36.7520  -10.5800   23.0450 C.ar  358  TYR358      0.0417
     37  CZ       -37.6680  -10.9370   22.0330 C.ar  358  TYR358      0.1957
     38  OH       -37.2380  -11.4220   20.8180 O.3   358  TYR358     -0.2866
     39  N        -39.9110   -6.9190   14.6980 N.3   362  SER362     -0.1217
     40  CA       -39.1070   -7.1970   13.5010 C.3   362  SER362      0.1889
     41  C        -39.9750   -7.5910   12.3020 C.2   362  SER362      0.2288
     42  O        -40.6830   -8.6030   12.3630 O.2   362  SER362     -0.2866
     43  CB       -38.0860   -8.3040   13.7990 C.3   362  SER362      0.2089
     44  OG       -37.3100   -8.6370   12.6520 O.3   362  SER362     -0.2183
     45  N        -36.1000   -4.7210   26.3140 N.3   386  ILE386     -0.1245
     46  CA       -35.6350   -5.0920   24.9660 C.3   386  ILE386      0.1561
     47  C        -36.6510   -4.7270   23.8700 C.2   386  ILE386      0.2260
     48  O        -37.8260   -5.1040   23.9600 O.2   386  ILE386     -0.2867
     49  CB       -35.3020   -6.6380   24.8780 C.3   386  ILE386      0.0252
     50  CG1      -34.2410   -7.0350   25.9240 C.3   386  ILE386      0.0019
     51  CG2      -34.7990   -7.0300   23.4520 C.3   386  ILE386      0.0019
     52  CD1      -34.0620   -8.5360   26.1210 C.3   386  ILE386      0.0001
     53  N        -36.8730   -4.7810   19.5670 N.3   388  ASN388     -0.1240
     54  CA       -36.3140   -5.1900   18.2730 C.3   388  ASN388      0.1653
     55  C        -37.1130   -4.5270   17.1440 C.2   388  ASN388      0.2266
     56  O        -38.2980   -4.8130   16.9730 O.2   388  ASN388     -0.2867
     57  CB       -36.3560   -6.7260   18.1540 C.3   388  ASN388      0.1155
     58  CG       -35.5040   -7.2760   17.0070 C.2   388  ASN388      0.2627
     59  OD1      -35.4270   -6.6900   15.9200 O.2   388  ASN388     -0.2716
     60  ND2      -34.9010   -8.4380   17.2570 N.am  388  ASN388     -0.0877
     61  N        -35.8270   -4.3490   13.6750 N.3   390  THR390     -0.1203
     62  CA       -35.2050   -4.6780   12.3850 C.3   390  THR390      0.1994
     63  C        -36.1920   -4.9180   11.2420 C.2   390  THR390      0.2617
     64  O        -37.3830   -5.1560   11.4670 O.2   390  THR390     -0.2717
     65  CB       -34.2840   -5.9380   12.4560 C.3   390  THR390      0.1784
     66  OG1      -35.0480   -7.0890   12.8290 O.3   390  THR390     -0.2211
     67  CG2      -33.1600   -5.7390   13.4290 C.3   390  THR390      0.0376
     68  N        -35.6600   -4.8330   10.0180 N.am  391  LYS391     -0.1979
     69  CA       -36.3700   -5.0680    8.7560 C.3   391  LYS391      0.1596
     70  C        -37.7060   -4.3490    8.5670 C.2   391  LYS391      0.2287
     71  O        -38.6740   -4.9500    8.1040 O.2   391  LYS391     -0.2864
     72  CB       -36.5490   -6.5770    8.5370 C.3   391  LYS391      0.0298
     73  CG       -35.2880   -7.4280    8.6620 C.3   391  LYS391      0.0038
     74  CD       -35.6630   -8.8870    8.5480 C.3   391  LYS391      0.0206
     75  CE       -34.6040   -9.7990    9.1310 C.3   391  LYS391      0.1093
     76  NZ       -35.0900  -11.2130    9.1320 N.3   391  LYS391     -0.1314
     77  N        -31.5720   -2.8060   25.5730 N.3   410  VAL410     -0.1245
     78  CA       -31.1760   -3.2410   24.2240 C.3   410  VAL410      0.1561
     79  C        -32.1040   -2.6430   23.1420 C.2   410  VAL410      0.2260
     80  O        -33.3200   -2.8250   23.1870 O.2   410  VAL410     -0.2867
     81  CB       -31.1810   -4.8210   24.0930 C.3   410  VAL410      0.0252
     82  CG1      -30.6950   -5.2670   22.6950 C.3   410  VAL410      0.0019
     83  CG2      -30.3090   -5.4750   25.1710 C.3   410  VAL410      0.0019
     84  N        -32.3620   -2.5940   18.9480 N.3   412  ASP412     -0.1239
     85  CA       -31.9080   -3.0960   17.6500 C.3   412  ASP412      0.1674
     86  C        -32.5780   -2.3600   16.4840 C.2   412  ASP412      0.2266
     87  O        -33.7500   -2.5880   16.1850 O.2   412  ASP412     -0.2867
     88  CB       -32.1530   -4.6110   17.5500 C.3   412  ASP412      0.1410
     89  CG       -31.3140   -5.2910   16.4530 C.2   412  ASP412      0.3668
     90  OD1      -30.8480   -4.6090   15.5080 O.co2 412  ASP412     -0.2456
     91  OD2      -31.1370   -6.5260   16.5290 O.co2 412  ASP412     -0.2456
     92  N        -30.4750   -3.4820    9.9650 N.3   415  LEU415     -0.1245
     93  CA       -31.1680   -3.9200    8.7410 C.3   415  LEU415      0.1561
     94  C        -32.3630   -3.0480    8.2780 C.2   415  LEU415      0.2260
     95  O        -33.4470   -3.5610    7.9840 O.2   415  LEU415     -0.2867
     96  CB       -31.5620   -5.4110    8.8510 C.3   415  LEU415      0.0270
     97  CG       -30.4290   -6.4530    8.9140 C.3   415  LEU415      0.0019
     98  CD1      -30.9280   -7.7530    9.5440 C.3   415  LEU415      0.0001
     99  CD2      -29.8660   -6.7020    7.5090 C.3   415  LEU415      0.0001
    100  N        -27.6680   -1.4660   18.3210 N.3   437  TYR437     -0.1241
    101  CA       -27.2800   -2.0640   17.0330 C.3   437  TYR437      0.1605
    102  C        -27.7860   -1.1230   15.9440 C.2   437  TYR437      0.2264
    103  O        -28.9800   -0.8200   15.9010 O.2   437  TYR437     -0.2867
    104  CB       -27.9640   -3.4090   16.7740 C.3   437  TYR437      0.0534
    105  CG       -27.5870   -4.5640   17.6550 C.ar  437  TYR437     -0.0201
    106  CD1      -28.2600   -4.7900   18.8760 C.ar  437  TYR437     -0.0009
    107  CD2      -26.6160   -5.5010   17.2400 C.ar  437  TYR437     -0.0009
    108  CE1      -27.9790   -5.9370   19.6700 C.ar  437  TYR437      0.0417
    109  CE2      -26.3200   -6.6550   18.0300 C.ar  437  TYR437      0.0417
    110  CZ       -27.0090   -6.8590   19.2410 C.ar  437  TYR437      0.1957
    111  OH       -26.7220   -7.9510   20.0300 O.3   437  TYR437     -0.2866
@<TRIPOS>BOND
     1    99    97    1
     2    95    94    2
     3    71    70    2
     4    94    93    1
     5    72    73    1
     6    72    69    1
     7    74    73    1
     8    74    75    1
     9    70    69    1
    10    93    96    1
    11    93    92    1
    12    69    68    1
    13    96    97    1
    14    97    98    1
    15    75    76    1
    16    25    24   ar
    17    23    24    1
    18    23    20    1
    19    22    21    2
    20    21    20    1
    21    24    26   ar
    22    68    63   am
    23    20    19    1
    24    63    64    2
    25    63    62    1
    26    19    12   am
    27    41    42    2
    28    41    40    1
    29    62    65    1
    30    62    61    1
    31    65    66    1
    32    65    67    1
    33     8     9    1
    34     8     7    1
    35    44    43    1
    36    12    13    2
    37    12    11    1
    38     3     4    2
    39     3     2    1
    40    40    43    1
    41    40    39    1
    42     6     7    1
    43     6     5    1
    44    11    14    1
    45    11    10    1
    46    14    15    1
    47     2     5    1
    48     2     1    1
    49    15    16    1
    50    17    16   ar
    51    90    89   ar
    52    16    18   ar
    53   103   102    2
    54    59    58    2
    55   102   101    1
    56    87    86    2
    57    89    91   ar
    58    89    88    1
    59    86    85    1
    60   104   101    1
    61   104   105    1
    62    56    55    2
    63    58    60   am
    64    58    57    1
    65   101   100    1
    66    55    54    1
    67   107   105   ar
    68   107   109   ar
    69    88    85    1
    70    85    84    1
    71   105   106   ar
    72   109   110   ar
    73    57    54    1
    74    54    53    1
    75   106   108   ar
    76   110   108   ar
    77   110   111    1
    78    38    37    1
    79    37    35   ar
    80    37    36   ar
    81    35    33   ar
    82    82    81    1
    83    36    34   ar
    84    79    80    2
    85    79    78    1
    86    51    49    1
    87    33    32   ar
    88    47    48    2
    89    47    46    1
    90    81    78    1
    91    81    83    1
    92    78    77    1
    93    34    32   ar
    94    32    31    1
    95    29    30    2
    96    29    28    1
    97    49    46    1
    98    49    50    1
    99    46    45    1
   100    31    28    1
   101    28    27    1
   102    50    52    1
