@<TRIPOS>MOLECULE
tmp/2a14A00.pdb
 214 207 0 0 0
SMALL
GASTEIGER

@<TRIPOS>ATOM
      1  N         28.2730   54.0150   10.3670 N.3     3  GLY3       -0.1210
      2  CA        27.5280   54.2290    9.1310 C.3     3  GLY3        0.1956
      3  C         27.9790   53.3660    7.9650 C.2     3  GLY3        0.2612
      4  O         28.6960   52.3730    8.1430 O.2     3  GLY3       -0.2717
      5  N         27.5620   53.7650    6.7640 N.am    4  GLY4       -0.1956
      6  CA        27.7720   52.9750    5.5580 C.3     4  GLY4        0.1869
      7  C         29.2230   52.6310    5.2910 C.2     4  GLY4        0.2309
      8  O         29.5390   51.4850    4.9580 O.2     4  GLY4       -0.2863
      9  N         30.3180   49.7490    7.5020 N.3     7  TYR7       -0.1241
     10  CA        29.8360   48.4650    6.9680 C.3     7  TYR7        0.1605
     11  C         30.6770   48.0180    5.7780 C.2     7  TYR7        0.2264
     12  O         31.1900   46.8970    5.7620 O.2     7  TYR7       -0.2867
     13  CB        28.3390   48.5250    6.6050 C.3     7  TYR7        0.0534
     14  CG        27.4970   48.3340    7.8300 C.ar    7  TYR7       -0.0201
     15  CD1       27.1460   49.4190    8.6260 C.ar    7  TYR7       -0.0009
     16  CD2       27.1180   47.0480    8.2410 C.ar    7  TYR7       -0.0009
     17  CE1       26.4080   49.2440    9.7940 C.ar    7  TYR7        0.0417
     18  CE2       26.3780   46.8580    9.3970 C.ar    7  TYR7        0.0417
     19  CZ        26.0260   47.9540   10.1670 C.ar    7  TYR7        0.1957
     20  OH        25.3140   47.7750   11.3190 O.3     7  TYR7       -0.2866
     21  N         32.3310   45.2180    7.8450 N.3    11  PHE11      -0.1241
     22  CA        31.3480   44.1570    8.1540 C.3    11  PHE11       0.1605
     23  C         31.7380   42.8520    7.4530 C.2    11  PHE11       0.2264
     24  O         31.7130   42.7700    6.2160 O.2    11  PHE11      -0.2867
     25  CB        29.9300   44.5790    7.7460 C.3    11  PHE11       0.0534
     26  CG        28.8440   43.6500    8.2380 C.ar   11  PHE11      -0.0203
     27  CD1       28.1170   43.9580    9.3910 C.ar   11  PHE11      -0.0042
     28  CD2       28.5240   42.4870    7.5350 C.ar   11  PHE11      -0.0042
     29  CE1       27.0880   43.1110    9.8420 C.ar   11  PHE11      -0.0003
     30  CE2       27.5060   41.6320    7.9810 C.ar   11  PHE11      -0.0003
     31  CZ        26.7910   41.9460    9.1390 C.ar   11  PHE11      -0.0000
     32  N         29.7460   37.5440   11.1550 N.3    16  TYR16      -0.1241
     33  CA        28.3250   37.6940   11.4600 C.3    16  TYR16       0.1605
     34  C         27.6480   36.3250   11.5870 C.2    16  TYR16       0.2264
     35  O         26.9330   36.0580   12.5570 O.2    16  TYR16      -0.2867
     36  CB        27.6250   38.5320   10.3820 C.3    16  TYR16       0.0534
     37  CG        26.1690   38.7910   10.6900 C.ar   16  TYR16      -0.0201
     38  CD1       25.7970   39.6940   11.6980 C.ar   16  TYR16      -0.0009
     39  CD2       25.1600   38.1330    9.9800 C.ar   16  TYR16      -0.0009
     40  CE1       24.4560   39.9310   11.9950 C.ar   16  TYR16       0.0417
     41  CE2       23.8110   38.3780   10.2640 C.ar   16  TYR16       0.0417
     42  CZ        23.4750   39.2660   11.2750 C.ar   16  TYR16       0.1957
     43  OH        22.1550   39.5080   11.5730 O.3    16  TYR16      -0.2866
     44  N         24.4650   32.7810   13.7210 N.3    21  TYR21      -0.1241
     45  CA        23.9170   31.6540   12.9730 C.3    21  TYR21       0.1605
     46  C         24.9200   30.5010   12.8960 C.2    21  TYR21       0.2264
     47  O         25.1180   29.9100   11.8410 O.2    21  TYR21      -0.2867
     48  CB        23.4700   32.1220   11.5770 C.3    21  TYR21       0.0534
     49  CG        22.4790   33.2670   11.6330 C.ar   21  TYR21      -0.0201
     50  CD1       21.1280   33.0320   11.9250 C.ar   21  TYR21      -0.0009
     51  CD2       22.8930   34.5880   11.4200 C.ar   21  TYR21      -0.0009
     52  CE1       20.2050   34.0940   11.9970 C.ar   21  TYR21       0.0417
     53  CE2       21.9710   35.6680   11.4850 C.ar   21  TYR21       0.0417
     54  CZ        20.6390   35.4050   11.7860 C.ar   21  TYR21       0.1957
     55  OH        19.7190   36.4380   11.8550 O.3    21  TYR21      -0.2866
     56  N         13.3130   41.4680   -0.2180 N.3    57  ASP57      -0.1239
     57  CA        13.9470   41.4450    1.1010 C.3    57  ASP57       0.1674
     58  C         14.9930   42.5610    1.1340 C.2    57  ASP57       0.2266
     59  O         15.8360   42.6650    0.2360 O.2    57  ASP57      -0.2867
     60  CB        14.5830   40.0710    1.3660 C.3    57  ASP57       0.1410
     61  CG        15.1340   39.9220    2.7780 C.2    57  ASP57       0.3668
     62  OD1       14.4910   40.3740    3.7570 O.co2  57  ASP57      -0.2456
     63  OD2       16.2140   39.3040    2.9030 O.co2  57  ASP57      -0.2456
     64  N         18.0080   44.5120    3.2910 N.3    59  GLY59      -0.1210
     65  CA        19.0070   44.2850    4.3440 C.3    59  GLY59       0.1956
     66  C         19.1400   42.8010    4.6710 C.2    59  GLY59       0.2613
     67  O         19.2130   42.4050    5.8420 O.2    59  GLY59      -0.2717
     68  N         19.1640   41.9930    3.6180 N.am   60  SER60      -0.1938
     69  CA        19.2680   40.5380    3.7140 C.3    60  SER60       0.2055
     70  C         20.4910   40.0430    4.5010 C.2    60  SER60       0.2643
     71  O         20.4940   38.9160    5.0010 O.2    60  SER60      -0.2714
     72  CB        19.3110   39.9130    2.3010 C.3    60  SER60       0.2130
     73  OG        18.2020   40.3050    1.5000 O.3    60  SER60      -0.2179
     74  N         21.5430   40.8620    4.5530 N.am   61  GLY61      -0.1954
     75  CA        22.8320   40.4170    5.0770 C.3    61  GLY61       0.1869
     76  C         23.2980   39.2160    4.2740 C.2    61  GLY61       0.2309
     77  O         22.9560   39.0890    3.0960 O.2    61  GLY61      -0.2863
     78  N         22.3070   36.1960    4.9010 N.3    63  THR63      -0.1218
     79  CA        21.4110   35.1420    5.3820 C.3    63  THR63       0.1862
     80  C         20.2620   34.8630    4.4050 C.2    63  THR63       0.2287
     81  O         19.8110   35.7610    3.6750 O.2    63  THR63      -0.2866
     82  CB        20.8300   35.4480    6.8080 C.3    63  THR63       0.1770
     83  OG1       19.8740   36.5090    6.7350 O.3    63  THR63      -0.2211
     84  CG2       21.9430   35.8550    7.8040 C.3    63  THR63       0.0375
     85  N         17.6420   32.4640    5.6360 N.3    65  TYR65      -0.1227
     86  CA        16.6010   31.8040    6.4530 C.3    65  TYR65       0.1736
     87  C         15.2750   32.5660    6.3500 C.2    65  TYR65       0.2595
     88  O         14.1960   31.9630    6.4260 O.2    65  TYR65      -0.2718
     89  CB        17.0160   31.6660    7.9360 C.3    65  TYR65       0.0548
     90  CG        16.9660   32.9850    8.6790 C.ar   65  TYR65      -0.0200
     91  CD1       15.7840   33.4140    9.2980 C.ar   65  TYR65      -0.0009
     92  CD2       18.0740   33.8420    8.6950 C.ar   65  TYR65      -0.0009
     93  CE1       15.7130   34.6570    9.9390 C.ar   65  TYR65       0.0417
     94  CE2       18.0210   35.0790    9.3370 C.ar   65  TYR65       0.0417
     95  CZ        16.8340   35.4820    9.9540 C.ar   65  TYR65       0.1957
     96  OH        16.7520   36.7040   10.5880 O.3    65  TYR65      -0.2866
     97  N         15.3680   33.8860    6.1650 N.am   66  GLN66      -0.1979
     98  CA        14.1850   34.7590    6.2210 C.3    66  GLN66       0.1601
     99  C         13.2030   34.5720    5.0620 C.2    66  GLN66       0.2287
    100  O         12.0850   35.0950    5.1220 O.2    66  GLN66      -0.2864
    101  CB        14.5840   36.2420    6.3410 C.3    66  GLN66       0.0394
    102  CG        15.3580   36.8150    5.1350 C.3    66  GLN66       0.0908
    103  CD        16.8740   36.7080    5.2890 C.2    66  GLN66       0.2608
    104  OE1       17.3970   35.7470    5.8630 O.2    66  GLN66      -0.2717
    105  NE2       17.5900   37.7010    4.7550 N.am   66  GLN66      -0.0878
    106  N         21.2730   43.9560   -0.1040 N.3    81  ASP81      -0.1225
    107  CA        21.9820   44.4330    1.0590 C.3    81  ASP81       0.1805
    108  C         22.8990   45.5850    0.7170 C.2    81  ASP81       0.2598
    109  O         23.3450   45.7270   -0.4230 O.2    81  ASP81      -0.2718
    110  CB        22.7840   43.3190    1.7160 C.3    81  ASP81       0.1424
    111  CG        23.1450   43.6540    3.1490 C.2    81  ASP81       0.3668
    112  OD1       22.2340   43.6710    3.9950 O.co2  81  ASP81      -0.2456
    113  OD2       24.3340   43.9150    3.4230 O.co2  81  ASP81      -0.2456
    114  N         23.1670   46.4070    1.7200 N.am   82  PHE82      -0.1962
    115  CA        24.0720   47.5270    1.5430 C.3    82  PHE82       0.1771
    116  C         25.5050   47.0440    1.3410 C.2    82  PHE82       0.2620
    117  O         26.2610   47.6720    0.6060 O.2    82  PHE82      -0.2715
    118  CB        23.9990   48.4330    2.7650 C.3    82  PHE82       0.0574
    119  CG        24.8410   49.6660    2.6490 C.ar   82  PHE82      -0.0200
    120  CD1       24.3010   50.8310    2.0980 C.ar   82  PHE82      -0.0042
    121  CD2       26.1700   49.6610    3.0780 C.ar   82  PHE82      -0.0042
    122  CE1       25.0690   51.9860    1.9860 C.ar   82  PHE82      -0.0003
    123  CE2       26.9570   50.8100    2.9610 C.ar   82  PHE82      -0.0003
    124  CZ        26.4040   51.9690    2.4100 C.ar   82  PHE82      -0.0000
    125  N         25.8690   45.9370    1.9900 N.am   83  THR83      -0.1951
    126  CA        27.2910   45.5650    2.1280 C.3    83  THR83       0.1897
    127  C         27.6990   44.5850    1.0210 C.2    83  THR83       0.2313
    128  O         27.1140   43.5110    0.8920 O.2    83  THR83      -0.2863
    129  CB        27.5860   44.9980    3.5530 C.3    83  THR83       0.1794
    130  OG1       27.3190   46.0080    4.5430 O.3    83  THR83      -0.2208
    131  CG2       29.0410   44.5640    3.6750 C.3    83  THR83       0.0378
    132  N         28.3840   40.9550    1.8230 N.3    86  ASN86      -0.1240
    133  CA        27.1650   40.1870    2.1080 C.3    86  ASN86       0.1653
    134  C         26.5040   39.6880    0.8350 C.2    86  ASN86       0.2266
    135  O         26.0830   38.5320    0.7580 O.2    86  ASN86      -0.2867
    136  CB        26.1720   41.0000    2.9450 C.3    86  ASN86       0.1155
    137  CG        26.5970   41.1290    4.3970 C.2    86  ASN86       0.2627
    138  OD1       27.3710   40.3110    4.9120 O.2    86  ASN86      -0.2716
    139  ND2       26.0840   42.1530    5.0710 N.am   86  ASN86      -0.0877
    140  N         21.2420   47.8120   -1.7940 N.3   137  CYS137     -0.1221
    141  CA        20.1600   48.6570   -1.2670 C.3   137  CYS137      0.1808
    142  C         20.6810   49.5960   -0.1890 C.2   137  CYS137      0.2601
    143  O         21.7170   49.3420    0.4290 O.2   137  CYS137     -0.2717
    144  CB        19.0090   47.8110   -0.7100 C.3   137  CYS137      0.0970
    145  SG        19.4230   46.9160    0.8050 S.3   137  CYS137     -0.0800
    146  N         19.9430   50.6790    0.0330 N.am  138  ASP138     -0.1959
    147  CA        20.2490   51.6460    1.0850 C.3   138  ASP138      0.1840
    148  C         18.9220   52.2460    1.5200 C.2   138  ASP138      0.2622
    149  O         18.3070   53.0040    0.7750 O.2   138  ASP138     -0.2715
    150  CB        21.1910   52.7400    0.5600 C.3   138  ASP138      0.1450
    151  CG        21.4980   53.8080    1.6020 C.2   138  ASP138      0.3671
    152  OD1       20.9110   53.7810    2.7100 O.co2 138  ASP138     -0.2456
    153  OD2       22.3640   54.6700    1.3150 O.co2 138  ASP138     -0.2456
    154  N         18.4860   51.8970    2.7300 N.am  139  VAL139     -0.1963
    155  CA        17.1400   52.2750    3.1910 C.3   139  VAL139      0.1727
    156  C         16.9390   53.7850    3.3610 C.2   139  VAL139      0.2616
    157  O         15.8100   54.2330    3.5500 O.2   139  VAL139     -0.2715
    158  CB        16.7580   51.5930    4.5320 C.3   139  VAL139      0.0290
    159  CG1       16.7890   50.0650    4.3810 C.3   139  VAL139      0.0023
    160  CG2       17.6660   52.0530    5.6630 C.3   139  VAL139      0.0023
    161  N         18.0250   54.5550    3.3280 N.am  140  HIS140     -0.1973
    162  CA        17.9220   56.0150    3.4670 C.3   140  HIS140      0.1656
    163  C         17.5090   56.7000    2.1780 C.2   140  HIS140      0.2291
    164  O         17.0580   57.8500    2.1960 O.2   140  HIS140     -0.2864
    165  CB        19.2470   56.6060    3.9610 C.3   140  HIS140      0.0771
    166  CG        19.7390   55.9760    5.2260 C.ar  140  HIS140      0.0820
    167  ND1       19.0110   56.0020    6.3970 N.ar  140  HIS140     -0.2267
    168  CD2       20.8750   55.2880    5.5010 C.ar  140  HIS140      0.1154
    169  CE1       19.6780   55.3600    7.3420 C.ar  140  HIS140      0.1986
    170  NE2       20.8140   54.9200    6.8250 N.ar  140  HIS140     -0.2212
    171  N         14.4100   42.0510    8.0930 N.3   159  LEU159     -0.1231
    172  CA        14.6720   41.5190    9.4300 C.3   159  LEU159      0.1693
    173  C         16.0160   41.9940    9.9490 C.2   159  LEU159      0.2592
    174  O         17.0480   41.8010    9.2960 O.2   159  LEU159     -0.2718
    175  CB        14.6430   39.9740    9.4430 C.3   159  LEU159      0.0284
    176  CG        13.2900   39.2550    9.4660 C.3   159  LEU159      0.0019
    177  CD1       12.5790   39.4220    8.1570 C.3   159  LEU159      0.0001
    178  CD2       13.4700   37.7580    9.7740 C.3   159  LEU159      0.0001
    179  N         15.9850   42.6150   11.1350 N.am  160  LEU160     -0.1966
    180  CA        17.1890   42.8900   11.9350 C.3   160  LEU160      0.1728
    181  C         18.1920   43.8530   11.2740 C.2   160  LEU160      0.2616
    182  O         19.3650   43.9020   11.6690 O.2   160  LEU160     -0.2715
    183  CB        17.8900   41.5700   12.3240 C.3   160  LEU160      0.0311
    184  CG        17.0080   40.4670   12.9480 C.3   160  LEU160      0.0022
    185  CD1       17.8100   39.1720   13.1880 C.3   160  LEU160      0.0001
    186  CD2       16.3410   40.9260   14.2480 C.3   160  LEU160      0.0001
    187  N         17.7510   44.6110   10.2760 N.am  161  ALA161     -0.1977
    188  CA        18.6630   45.4930    9.5210 C.3   161  ALA161      0.1597
    189  C         18.3510   46.9770    9.7090 C.2   161  ALA161      0.2287
    190  O         19.2630   47.8010    9.8330 O.2   161  ALA161     -0.2864
    191  CB        18.6520   45.1350    8.0350 C.3   161  ALA161      0.0319
    192  N         19.9530   48.7240   12.4860 N.3   164  CYS164     -0.1221
    193  CA        21.4060   48.8380   12.2680 C.3   164  CYS164      0.1808
    194  C         21.7250   49.9620   11.2850 C.2   164  CYS164      0.2601
    195  O         22.7410   50.6560   11.4200 O.2   164  CYS164     -0.2717
    196  CB        21.9720   47.5200   11.7370 C.3   164  CYS164      0.0970
    197  SG        21.7190   46.1500   12.8870 S.3   164  CYS164     -0.0800
    198  N         20.8580   50.1220   10.2890 N.am  165  ALA165     -0.1979
    199  CA        21.0440   51.1290    9.2450 C.3   165  ALA165      0.1597
    200  C         20.7490   52.5480    9.7130 C.2   165  ALA165      0.2287
    201  O         21.3070   53.5080    9.1610 O.2   165  ALA165     -0.2864
    202  CB        20.1670   50.7980    8.0360 C.3   165  ALA165      0.0319
    203  N         25.6420   46.0240   18.6700 N.3   200  TYR200     -0.1241
    204  CA        25.7500   44.5700   18.5350 C.3   200  TYR200      0.1605
    205  C         27.1350   44.1930   18.0520 C.2   200  TYR200      0.2264
    206  O         27.7800   44.9870   17.3550 O.2   200  TYR200     -0.2867
    207  CB        24.6570   44.0040   17.6080 C.3   200  TYR200      0.0534
    208  CG        24.8050   44.3130   16.1190 C.ar  200  TYR200     -0.0201
    209  CD1       25.0690   43.2960   15.1990 C.ar  200  TYR200     -0.0009
    210  CD2       24.6460   45.6150   15.6300 C.ar  200  TYR200     -0.0009
    211  CE1       25.1890   43.5720   13.8330 C.ar  200  TYR200      0.0417
    212  CE2       24.7590   45.9010   14.2660 C.ar  200  TYR200      0.0417
    213  CZ        25.0320   44.8800   13.3790 C.ar  200  TYR200      0.1957
    214  OH        25.1480   45.1590   12.0450 O.3   200  TYR200     -0.2866
@<TRIPOS>BOND
     1   140   141    1
     2   141   144    1
     3   141   142    1
     4   144   145    1
     5   109   108    2
     6    56    57    1
     7   142   146   am
     8   142   143    2
     9   106   107    1
    10   146   147    1
    11    59    58    2
    12   150   147    1
    13   150   151    1
    14   117   116    2
    15   108   107    1
    16   108   114   am
    17   135   134    2
    18   149   148    2
    19   134   133    1
    20   128   127    2
    21   127   126    1
    22   107   110    1
    23   147   148    1
    24    57    58    1
    25    57    60    1
    26   153   151   ar
    27   116   115    1
    28   116   125   am
    29    60    61    1
    30    73    72    1
    31   148   154   am
    32   115   114    1
    33   115   118    1
    34   151   152   ar
    35   110   111    1
    36   132   133    1
    37   122   120   ar
    38   122   124   ar
    39   125   126    1
    40   120   119   ar
    41   133   136    1
    42   126   129    1
    43   163   164    2
    44   163   162    1
    45    72    69    1
    46   124   123   ar
    47   119   118    1
    48   119   121   ar
    49   154   155    1
    50    61    63   ar
    51    61    62   ar
    52   136   137    1
    53   123   121   ar
    54    77    76    2
    55   111   113   ar
    56   111   112   ar
    57   155   156    1
    58   155   158    1
    59    64    65    1
    60   161   156   am
    61   161   162    1
    62   156   157    2
    63   162   165    1
    64   129   131    1
    65   129   130    1
    66    68    69    1
    67    68    66   am
    68    81    80    2
    69    69    70    1
    70   165   166    1
    71    76    75    1
    72    65    66    1
    73   159   158    1
    74   137   138    2
    75   137   139   am
    76    80    79    1
    77    70    74   am
    78    70    71    2
    79   158   160    1
    80    74    75    1
    81    66    67    2
    82   105   103   am
    83    78    79    1
    84     8     7    2
    85    99   100    2
    86    99    98    1
    87   102   103    1
    88   102   101    1
    89   166   168   ar
    90   166   167   ar
    91   103   104    2
    92     7     6    1
    93    79    82    1
    94   168   170   ar
    95     6     5    1
    96    85    86    1
    97    12    11    2
    98    11    10    1
    99    97    98    1
   100    97    87   am
   101    24    23    2
   102    98   101    1
   103    87    88    2
   104    87    86    1
   105   167   169   ar
   106    86    89    1
   107    13    10    1
   108    13    14    1
   109    83    82    1
   110     5     3   am
   111    82    84    1
   112   170   169   ar
   113    10     9    1
   114    23    22    1
   115    28    30   ar
   116    28    26   ar
   117    25    22    1
   118    25    26    1
   119    14    16   ar
   120    14    15   ar
   121    21    22    1
   122    89    90    1
   123     3     4    2
   124     3     2    1
   125    30    31   ar
   126   191   188    1
   127   202   199    1
   128   171   172    1
   129   177   176    1
   130    26    27   ar
   131    16    18   ar
   132    15    17   ar
   133    90    92   ar
   134    90    91   ar
   135    92    94   ar
   136     2     1    1
   137    31    29   ar
   138   201   200    2
   139   199   200    1
   140   199   198    1
   141   174   173    2
   142    91    93   ar
   143    94    95   ar
   144    27    29   ar
   145    18    19   ar
   146   172   175    1
   147   172   173    1
   148   175   176    1
   149   176   178    1
   150   188   189    1
   151   188   187    1
   152   189   190    2
   153    17    19   ar
   154    93    95   ar
   155   173   179   am
   156    95    96    1
   157    39    41   ar
   158    39    37   ar
   159    19    20    1
   160    41    42   ar
   161   187   181   am
   162   198   194   am
   163    36    37    1
   164    36    33    1
   165    37    38   ar
   166   179   180    1
   167    32    33    1
   168   181   182    2
   169   181   180    1
   170    42    43    1
   171    42    40   ar
   172   194   195    2
   173   194   193    1
   174    51    53   ar
   175    51    49   ar
   176    33    34    1
   177    53    54   ar
   178    48    49    1
   179    48    45    1
   180    34    35    2
   181    49    50   ar
   182    38    40   ar
   183   196   193    1
   184   196   197    1
   185    54    55    1
   186    54    52   ar
   187    47    46    2
   188    50    52   ar
   189   180   183    1
   190   214   213    1
   191   193   192    1
   192   183   184    1
   193    46    45    1
   194   184   185    1
   195   184   186    1
   196    45    44    1
   197   213   211   ar
   198   213   212   ar
   199   211   209   ar
   200   212   210   ar
   201   209   208   ar
   202   210   208   ar
   203   208   207    1
   204   206   205    2
   205   207   204    1
   206   205   204    1
   207   204   203    1
