@<TRIPOS>MOLECULE
tmp/2a15A00.pdb
 138 131 0 0 0
SMALL
GASTEIGER

@<TRIPOS>ATOM
      1  N          5.2380  -11.6340    8.1830 N.3    12  SER12      -0.1202
      2  CA         5.2740  -11.0920    6.8360 C.3    12  SER12       0.2020
      3  C          3.9100  -11.2470    6.1290 C.2    12  SER12       0.2618
      4  O          3.4380  -10.2910    5.4980 O.2    12  SER12      -0.2717
      5  CB         6.4460  -11.6830    6.0360 C.3    12  SER12       0.2103
      6  OG         6.1650  -13.0180    5.6240 O.3    12  SER12      -0.2182
      7  N          3.2400  -12.4010    6.2910 N.am   13  TRP13      -0.1975
      8  CA         1.9180  -12.5820    5.6640 C.3    13  TRP13       0.1640
      9  C          0.8300  -11.7760    6.3550 C.2    13  TRP13       0.2290
     10  O         -0.0560  -11.2650    5.7080 O.2    13  TRP13      -0.2864
     11  CB         1.5580  -13.9820    5.1290 C.3    13  TRP13       0.0576
     12  CG         1.6130  -15.1290    6.0500 C.ar   13  TRP13       0.0006
     13  CD1        0.7220  -15.4390    7.0170 C.ar   13  TRP13       0.0946
     14  CD2        2.5820  -16.1910    6.0300 C.ar   13  TRP13       0.0152
     15  NE1        1.0840  -16.6140    7.6400 N.ar   13  TRP13      -0.2442
     16  CE2        2.2250  -17.0950    7.0500 C.ar   13  TRP13       0.0810
     17  CE3        3.7230  -16.4570    5.2540 C.ar   13  TRP13       0.0012
     18  CZ2        2.9760  -18.2500    7.3310 C.ar   13  TRP13       0.0191
     19  CZ3        4.4700  -17.6040    5.5300 C.ar   13  TRP13       0.0001
     20  CH2        4.0870  -18.4880    6.5580 C.ar   13  TRP13       0.0015
     21  N          1.0950   -8.4180    4.9610 N.3    16  VAL16      -0.1245
     22  CA         0.4880   -8.4210    3.6370 C.3    16  VAL16       0.1561
     23  C         -1.0310   -8.3150    3.7830 C.2    16  VAL16       0.2260
     24  O         -1.6700   -7.4750    3.1320 O.2    16  VAL16      -0.2867
     25  CB         0.9190   -9.6460    2.7520 C.3    16  VAL16       0.0252
     26  CG1        0.0630   -9.7300    1.4620 C.3    16  VAL16       0.0019
     27  CG2        2.4080   -9.5230    2.3730 C.3    16  VAL16       0.0019
     28  N          5.5170   -4.3900    7.1680 N.3    24  TRP24      -0.1241
     29  CA         6.2310   -5.3780    6.3150 C.3    24  TRP24       0.1605
     30  C          7.7310   -5.0570    6.1640 C.2    24  TRP24       0.2264
     31  O          8.5920   -5.9160    6.4050 O.2    24  TRP24      -0.2867
     32  CB         5.4890   -5.4730    4.9580 C.3    24  TRP24       0.0550
     33  CG         5.8940   -6.6610    4.0790 C.ar   24  TRP24       0.0003
     34  CD1        5.4550   -7.9660    4.1750 C.ar   24  TRP24       0.0946
     35  CD2        6.7810   -6.6090    2.9840 C.ar   24  TRP24       0.0152
     36  NE1        6.0460   -8.7410    3.1740 N.ar   24  TRP24      -0.2442
     37  CE2        6.8630   -7.9270    2.4360 C.ar   24  TRP24       0.0810
     38  CE3        7.5160   -5.5720    2.3770 C.ar   24  TRP24       0.0012
     39  CZ2        7.6500   -8.2180    1.3060 C.ar   24  TRP24       0.0191
     40  CZ3        8.2980   -5.8700    1.2670 C.ar   24  TRP24       0.0001
     41  CH2        8.3560   -7.1910    0.7450 C.ar   24  TRP24       0.0015
     42  N         12.2860   -6.5900    7.6650 N.3    28  MET28      -0.1245
     43  CA        13.3860   -6.8510    6.7390 C.3    28  MET28       0.1570
     44  C         14.6850   -6.2840    7.2370 C.2    28  MET28       0.2261
     45  O         14.7260   -5.1480    7.7370 O.2    28  MET28      -0.2867
     46  CB        13.1210   -6.2500    5.3470 C.3    28  MET28       0.0387
     47  CG        11.7710   -6.5950    4.7930 C.3    28  MET28       0.0595
     48  SD        11.6290   -8.3730    4.4950 S.3    28  MET28      -0.1393
     49  CE         9.8780   -8.4520    4.1850 C.3    28  MET28       0.0692
     50  N         11.4960  -13.5700   -5.3790 N.3    36  ASP36      -0.1239
     51  CA        10.1610  -14.1260   -5.5090 C.3    36  ASP36       0.1674
     52  C          9.7020  -13.9900   -6.9610 C.2    36  ASP36       0.2266
     53  O          9.1330  -12.9630   -7.3470 O.2    36  ASP36      -0.2867
     54  CB         9.2020  -13.3520   -4.5760 C.3    36  ASP36       0.1410
     55  CG         7.7230  -13.6660   -4.8430 C.2    36  ASP36       0.3668
     56  OD1        7.4010  -14.8290   -5.1610 O.co2  36  ASP36      -0.2456
     57  OD2        6.8790  -12.7400   -4.7620 O.co2  36  ASP36      -0.2456
     58  N          8.8710   -3.0430   -4.6110 N.3    59  PHE59      -0.1241
     59  CA         8.3020   -4.3880   -4.8420 C.3    59  PHE59       0.1605
     60  C          6.9690   -4.5960   -4.1200 C.2    59  PHE59       0.2264
     61  O          6.0150   -5.1000   -4.7070 O.2    59  PHE59      -0.2867
     62  CB         9.3530   -5.4600   -4.4480 C.3    59  PHE59       0.0534
     63  CG         8.8350   -6.8840   -4.4650 C.ar   59  PHE59      -0.0203
     64  CD1        8.9110   -7.6530   -5.6260 C.ar   59  PHE59      -0.0042
     65  CD2        8.2880   -7.4520   -3.3320 C.ar   59  PHE59      -0.0042
     66  CE1        8.4280   -8.9570   -5.6390 C.ar   59  PHE59      -0.0003
     67  CE2        7.8100   -8.7550   -3.3500 C.ar   59  PHE59      -0.0003
     68  CZ         7.8890   -9.5060   -4.5240 C.ar   59  PHE59      -0.0000
     69  N          2.7070   -6.5420   -4.4300 N.3    64  ILE64      -0.1245
     70  CA         1.9200   -7.0300   -3.3030 C.3    64  ILE64       0.1561
     71  C          0.6190   -6.2200   -3.1720 C.2    64  ILE64       0.2260
     72  O         -0.4620   -6.7850   -3.1020 O.2    64  ILE64      -0.2867
     73  CB         2.7260   -7.0000   -1.9650 C.3    64  ILE64       0.0252
     74  CG1        3.8930   -8.0280   -2.0520 C.3    64  ILE64       0.0019
     75  CG2        1.8100   -7.3840   -0.7990 C.3    64  ILE64       0.0019
     76  CD1        4.8470   -8.0620   -0.8450 C.3    64  ILE64       0.0001
     77  N         -2.4040   -8.9200   -3.8780 N.3    69  LEU69      -0.1245
     78  CA        -1.8410  -10.2290   -3.4990 C.3    69  LEU69       0.1561
     79  C         -2.4280  -10.7310   -2.1780 C.2    69  LEU69       0.2260
     80  O         -2.5180   -9.9630   -1.1820 O.2    69  LEU69      -0.2867
     81  CB        -0.3180  -10.1050   -3.4080 C.3    69  LEU69       0.0270
     82  CG         0.3740  -11.4530   -3.0770 C.3    69  LEU69       0.0019
     83  CD1        0.3080  -12.3530   -4.3310 C.3    69  LEU69       0.0001
     84  CD2        1.8230  -11.2090   -2.6140 C.3    69  LEU69       0.0001
     85  N         -1.8220  -14.1590    0.4650 N.3    71  VAL71      -0.1245
     86  CA        -0.8560  -15.2160    0.7680 C.3    71  VAL71       0.1561
     87  C         -1.5030  -16.1580    1.7830 C.2    71  VAL71       0.2260
     88  O         -1.9470  -15.7160    2.8600 O.2    71  VAL71      -0.2867
     89  CB         0.4560  -14.6150    1.3300 C.3    71  VAL71       0.0252
     90  CG1        1.4910  -15.7440    1.5680 C.3    71  VAL71       0.0019
     91  CG2        1.0560  -13.6040    0.3800 C.3    71  VAL71       0.0019
     92  N          3.2220  -22.0950    0.1390 N.3    89  LEU89      -0.1245
     93  CA         2.2600  -20.9830    0.1220 C.3    89  LEU89       0.1561
     94  C          1.4670  -20.9840   -1.1760 C.2    89  LEU89       0.2260
     95  O          1.9790  -21.3540   -2.2510 O.2    89  LEU89      -0.2867
     96  CB         2.9660  -19.6410    0.2390 C.3    89  LEU89       0.0270
     97  CG         3.9620  -19.3920    1.3710 C.3    89  LEU89       0.0019
     98  CD1        4.5120  -17.9760    1.2800 C.3    89  LEU89       0.0001
     99  CD2        3.2480  -19.6580    2.6890 C.3    89  LEU89       0.0001
    100  N         -0.3700  -18.2410   -3.5140 N.3    91  LEU91      -0.1245
    101  CA        -0.4320  -16.7990   -3.7870 C.3    91  LEU91       0.1561
    102  C         -1.5640  -16.5420   -4.7640 C.2    91  LEU91       0.2260
    103  O         -1.6970  -17.2700   -5.7420 O.2    91  LEU91      -0.2867
    104  CB         0.8720  -16.2610   -4.3880 C.3    91  LEU91       0.0270
    105  CG         2.1850  -16.5740   -3.6440 C.3    91  LEU91       0.0019
    106  CD1        3.3110  -15.9070   -4.3960 C.3    91  LEU91       0.0001
    107  CD2        2.1440  -16.1620   -2.1990 C.3    91  LEU91       0.0001
    108  N          8.3450  -21.5780   -0.4230 N.3   107  PHE107     -0.1241
    109  CA         9.0550  -20.3430   -0.0930 C.3   107  PHE107      0.1605
    110  C          9.9610  -20.5760    1.1160 C.2   107  PHE107      0.2264
    111  O          9.5070  -21.1340    2.1220 O.2   107  PHE107     -0.2867
    112  CB         8.0680  -19.2070    0.1990 C.3   107  PHE107      0.0534
    113  CG         7.3050  -18.7830   -1.0390 C.ar  107  PHE107     -0.0203
    114  CD1        7.6270  -17.6100   -1.7110 C.ar  107  PHE107     -0.0042
    115  CD2        6.3020  -19.6100   -1.5230 C.ar  107  PHE107     -0.0042
    116  CE1        6.8980  -17.2780   -2.8760 C.ar  107  PHE107     -0.0003
    117  CE2        5.5950  -19.2730   -2.6840 C.ar  107  PHE107     -0.0003
    118  CZ         5.9170  -18.1260   -3.3260 C.ar  107  PHE107     -0.0000
    119  N         12.7060  -18.9330    3.9490 N.3   109  TYR109     -0.1241
    120  CA        13.0370  -17.6810    4.6260 C.3   109  TYR109      0.1605
    121  C         14.2760  -17.8900    5.4890 C.2   109  TYR109      0.2264
    122  O         14.4270  -18.9410    6.1080 O.2   109  TYR109     -0.2867
    123  CB        11.9210  -17.2230    5.5760 C.3   109  TYR109      0.0534
    124  CG        10.5880  -16.8990    4.9110 C.ar  109  TYR109     -0.0201
    125  CD1       10.0960  -15.5800    4.8870 C.ar  109  TYR109     -0.0009
    126  CD2        9.8140  -17.9060    4.3410 C.ar  109  TYR109     -0.0009
    127  CE1        8.8730  -15.2970    4.2920 C.ar  109  TYR109      0.0417
    128  CE2        8.5960  -17.6210    3.7270 C.ar  109  TYR109      0.0417
    129  CZ         8.1290  -16.3130    3.7280 C.ar  109  TYR109      0.1957
    130  OH         6.9170  -16.0420    3.1340 O.3   109  TYR109     -0.2866
    131  N         14.1620  -14.0530    1.3060 N.3   120  MET120     -0.1245
    132  CA        12.9370  -14.7980    1.0490 C.3   120  MET120      0.1570
    133  C         13.0450  -15.2690   -0.3970 C.2   120  MET120      0.2261
    134  O         13.2810  -14.4580   -1.2960 O.2   120  MET120     -0.2867
    135  CB        11.6680  -13.9560    1.2490 C.3   120  MET120      0.0387
    136  CG        10.3790  -14.7590    1.0650 C.3   120  MET120      0.0595
    137  SD         9.7740  -14.8220   -0.6360 S.3   120  MET120     -0.1393
    138  CE         8.8510  -13.2950   -0.7370 C.3   120  MET120      0.0692
@<TRIPOS>BOND
     1    53    52    2
     2    52    51    1
     3   103   102    2
     4    66    64   ar
     5    66    68   ar
     6    64    63   ar
     7    51    50    1
     8    51    54    1
     9    56    55   ar
    10    55    57   ar
    11    55    54    1
    12    59    58    1
    13    59    62    1
    14    59    60    1
    15   102   101    1
    16    61    60    2
    17    68    67   ar
    18    63    62    1
    19    63    65   ar
    20    69    70    1
    21   106   105    1
    22   104   101    1
    23   104   105    1
    24    83    82    1
    25    77    78    1
    26   101   100    1
    27   105   107    1
    28    78    81    1
    29    78    79    1
    30    81    82    1
    31    67    65   ar
    32   118   116   ar
    33   118   117   ar
    34    70    71    1
    35    70    73    1
    36    71    72    2
    37    82    84    1
    38   116   114   ar
    39   117   115   ar
    40    95    94    2
    41    79    80    2
    42    74    73    1
    43    74    76    1
    44    73    75    1
    45   114   113   ar
    46   115   113   ar
    47   134   133    2
    48    94    93    1
    49   113   112    1
    50   138   137    1
    51   137   136    1
    52   108   109    1
    53   133   132    1
    54   109   112    1
    55   109   110    1
    56    93    92    1
    57    93    96    1
    58    96    97    1
    59    91    89    1
    60    85    86    1
    61    41    40   ar
    62    41    39   ar
    63    86    89    1
    64    86    87    1
    65   132   135    1
    66   132   131    1
    67   136   135    1
    68   110   111    2
    69    40    38   ar
    70    98    97    1
    71    39    37   ar
    72    89    90    1
    73    97    99    1
    74    26    25    1
    75    87    88    2
    76    27    25    1
    77    38    35   ar
    78    37    35   ar
    79    37    36   ar
    80    25    22    1
    81    35    33   ar
    82    24    23    2
    83   130   129    1
    84    36    34   ar
    85    22    23    1
    86    22    21    1
    87   128   129   ar
    88   128   126   ar
    89   129   127   ar
    90   119   120    1
    91    33    34   ar
    92    33    32    1
    93    49    48    1
    94   127   125   ar
    95   126   124   ar
    96    48    47    1
    97   120   121    1
    98   120   123    1
    99    47    46    1
   100   125   124   ar
   101   124   123    1
   102    32    29    1
   103    11     8    1
   104    11    12    1
   105    17    19   ar
   106    17    14   ar
   107    46    43    1
   108   121   122    2
   109     4     3    2
   110    19    20   ar
   111     6     5    1
   112     8     7    1
   113     8     9    1
   114    10     9    2
   115    14    12   ar
   116    14    16   ar
   117     5     2    1
   118    12    13   ar
   119     3     7   am
   120     3     2    1
   121    30    29    1
   122    30    31    2
   123    29    28    1
   124    20    18   ar
   125    43    44    1
   126    43    42    1
   127     2     1    1
   128    13    15   ar
   129    16    18   ar
   130    16    15   ar
   131    44    45    2
