@<TRIPOS>MOLECULE
tmp/2a1eA00.pdb
 140 133 0 0 0
SMALL
GASTEIGER

@<TRIPOS>ATOM
      1  N          2.4560   24.0610   17.2150 N.3     8  ARG8       -0.1245
      2  CA         3.6880   24.6630   16.7390 C.3     8  ARG8        0.1563
      3  C          3.4020   26.0680   16.2450 C.2     8  ARG8        0.2260
      4  O          2.4230   26.3000   15.5400 O.2     8  ARG8       -0.2867
      5  CB         4.2510   23.8320   15.6020 C.3     8  ARG8        0.0307
      6  CG         4.6890   22.4400   16.0520 C.3     8  ARG8        0.0489
      7  CD         5.2180   21.5860   14.9150 C.3     8  ARG8        0.2205
      8  NE         5.4430   20.2240   15.4490 N.pl3   8  ARG8       -0.0865
      9  CZ         5.0900   19.0940   14.8460 C.cat   8  ARG8        0.5346
     10  NH1        4.4900   19.0030   13.6510 N.pl3   8  ARG8        0.1354
     11  NH2        5.3670   17.9930   15.4880 N.pl3   8  ARG8        0.1354
     12  N          8.6670   28.0620   11.3190 N.3    23  LEU23      -0.1245
     13  CA         8.5080   27.8960   12.7530 C.3    23  LEU23       0.1561
     14  C          9.2050   29.0140   13.5330 C.2    23  LEU23       0.2260
     15  O         10.3990   29.2390   13.3660 O.2    23  LEU23      -0.2867
     16  CB         9.1480   26.5470   13.0810 C.3    23  LEU23       0.0270
     17  CG         9.0330   26.1230   14.5400 C.3    23  LEU23       0.0019
     18  CD1        7.5920   25.8640   14.8830 C.3    23  LEU23       0.0001
     19  CD2        9.8710   24.8780   14.6920 C.3    23  LEU23       0.0001
     20  N         11.0270   30.1600   16.3930 N.3    25  ASP25      -0.1239
     21  CA        11.8190   29.3010   17.2510 C.3    25  ASP25       0.1674
     22  C         12.7500   30.0900   18.1560 C.2    25  ASP25       0.2266
     23  O         13.8460   30.4630   17.7910 O.2    25  ASP25      -0.2867
     24  CB        12.6630   28.4070   16.3320 C.3    25  ASP25       0.1410
     25  CG        13.3710   27.3290   17.0880 C.2    25  ASP25       0.3668
     26  OD1       13.4330   27.3660   18.3280 O.co2  25  ASP25      -0.2456
     27  OD2       13.8490   26.4150   16.4200 O.co2  25  ASP25      -0.2456
     28  N         14.4470   28.9920   20.5440 N.3    27  GLY27      -0.1210
     29  CA        15.6480   28.2450   20.8360 C.3    27  GLY27       0.1956
     30  C         16.7110   28.2910   19.7770 C.2    27  GLY27       0.2612
     31  O         17.8180   27.7920   20.0340 O.2    27  GLY27      -0.2717
     32  N         16.3810   28.8640   18.6240 N.am   28  ALA28      -0.1965
     33  CA        17.3180   28.8800   17.5080 C.3    28  ALA28       0.1728
     34  C         18.1070   30.1810   17.5110 C.2    28  ALA28       0.2616
     35  O         17.5560   31.2770   17.5380 O.2    28  ALA28      -0.2715
     36  CB        16.5840   28.7300   16.1890 C.3    28  ALA28       0.0334
     37  N         19.4360   30.0640   17.4440 N.am   29  ASP29      -0.1957
     38  CA        20.2200   31.2820   17.3200 C.3    29  ASP29       0.1840
     39  C         20.0370   31.9300   15.9610 C.2    29  ASP29       0.2622
     40  O         20.1280   33.1420   15.8250 O.2    29  ASP29      -0.2715
     41  CB        21.6910   30.9220   17.3920 C.3    29  ASP29       0.1450
     42  CG        22.1710   30.4120   18.7140 C.2    29  ASP29       0.3671
     43  OD1       21.4910   30.6590   19.7340 O.co2  29  ASP29      -0.2456
     44  OD2       23.2430   29.7540   18.7190 O.co2  29  ASP29      -0.2456
     45  N         19.8710   31.0900   14.9550 N.am   30  ASP30      -0.1971
     46  CA        19.9060   31.4510   13.5610 C.3    30  ASP30       0.1709
     47  C         18.5970   31.0740   12.8780 C.2    30  ASP30       0.2293
     48  O         17.8200   30.2550   13.3370 O.2    30  ASP30      -0.2864
     49  CB        21.0150   30.6710   12.8760 C.3    30  ASP30       0.1436
     50  CG        22.3930   31.0150   13.4300 C.2    30  ASP30       0.3671
     51  OD1       22.6260   32.0700   14.0120 O.co2  30  ASP30      -0.2456
     52  OD2       23.2530   30.1660   13.2720 O.co2  30  ASP30      -0.2456
     53  N         17.0210   29.4150    9.5140 N.3    32  VAL32      -0.1245
     54  CA        17.4530   28.4190    8.5620 C.3    32  VAL32       0.1561
     55  C         16.2620   28.0290    7.7090 C.2    32  VAL32       0.2260
     56  O         15.2150   27.6540    8.2040 O.2    32  VAL32      -0.2867
     57  CB        18.0810   27.1620    9.2010 C.3    32  VAL32       0.0252
     58  CG1       19.0040   26.4460    8.2300 C.3    32  VAL32       0.0019
     59  CG2       18.7400   27.4720   10.5570 C.3    32  VAL32       0.0019
     60  N         28.5750   27.2340    6.6720 N.3    45  LYS45      -0.1231
     61  CA        28.4140   27.1790    8.1180 C.3    45  LYS45       0.1693
     62  C         27.9230   25.8000    8.5010 C.2    45  LYS45       0.2592
     63  O         27.2070   25.1700    7.7120 O.2    45  LYS45      -0.2718
     64  CB        27.4350   28.2760    8.5950 C.3    45  LYS45       0.0285
     65  CG        27.3960   28.4880   10.0790 C.3    45  LYS45       0.0035
     66  CD        26.4360   29.5100   10.6690 C.3    45  LYS45       0.0206
     67  CE        26.7360   29.6950   12.1680 C.3    45  LYS45       0.1093
     68  NZ        25.9200   30.7030   12.8580 N.3    45  LYS45      -0.1314
     69  N         28.2940   25.3210    9.6640 N.am   46  MET46      -0.1965
     70  CA        27.6850   24.1440   10.2290 C.3    46  MET46       0.1736
     71  C         26.8460   24.6070   11.4100 C.2    46  MET46       0.2616
     72  O         27.2940   25.3620   12.2700 O.2    46  MET46      -0.2715
     73  CB        28.7510   23.1840   10.7210 C.3    46  MET46       0.0427
     74  CG        29.5270   22.5190    9.6150 C.3    46  MET46       0.0599
     75  SD        28.5600   21.1090    9.0700 S.3    46  MET46      -0.1393
     76  CE        29.3280   19.8810   10.1200 C.3    46  MET46       0.0692
     77  N         25.6100   24.1550   11.4000 N.am   47  ILE47      -0.1963
     78  CA        24.7280   24.4130   12.5180 C.3    47  ILE47       0.1727
     79  C         24.3890   23.1050   13.1840 C.2    47  ILE47       0.2617
     80  O         24.2760   22.0720   12.5470 O.2    47  ILE47      -0.2715
     81  CB        23.4520   25.1450   12.0890 C.3    47  ILE47       0.0290
     82  CG1       22.7190   24.4840   10.9610 C.3    47  ILE47       0.0022
     83  CG2       23.8190   26.5620   11.7310 C.3    47  ILE47       0.0023
     84  CD1       21.3470   25.0710   10.6810 C.3    47  ILE47       0.0001
     85  N         24.2200   23.1810   14.5080 N.am   48  GLY48      -0.1940
     86  CA        23.9930   21.9880   15.2620 C.3    48  GLY48       0.2014
     87  C         22.6840   22.0060   16.0050 C.2    48  GLY48       0.2639
     88  O         22.0760   23.0270   16.2710 O.2    48  GLY48      -0.2714
     89  N         22.3100   20.8220   16.4310 N.am   49  GLY49      -0.1939
     90  CA        21.1310   20.6790   17.2670 C.3    49  GLY49       0.2014
     91  C         20.8770   19.2170   17.5020 C.2    49  GLY49       0.2638
     92  O         21.8150   18.4570   17.5360 O.2    49  GLY49      -0.2714
     93  N         19.6020   18.9120   17.7140 N.am   50  ILE50      -0.1977
     94  CA        19.2550   17.5280   17.9350 C.3    50  ILE50       0.1596
     95  C         19.6680   16.7390   16.7190 C.2    50  ILE50       0.2287
     96  O         19.3790   17.1030   15.5930 O.2    50  ILE50      -0.2864
     97  CB        17.7470   17.4270   18.2440 C.3    50  ILE50       0.0276
     98  CG1       17.3250   17.9810   19.5900 C.3    50  ILE50       0.0022
     99  CG2       17.3360   15.9640   18.1390 C.3    50  ILE50       0.0022
    100  CD1       17.7940   17.2630   20.8030 C.3    50  ILE50       0.0001
    101  N         24.8220   17.9370   13.2360 N.3    53  PHE53      -0.1241
    102  CA        25.0350   19.1320   12.4600 C.3    53  PHE53       0.1605
    103  C         24.6280   18.9500   11.0050 C.2    53  PHE53       0.2264
    104  O         24.7470   17.8470   10.4980 O.2    53  PHE53      -0.2867
    105  CB        26.5150   19.4840   12.4910 C.3    53  PHE53       0.0534
    106  CG        26.9930   19.9450   13.8480 C.ar   53  PHE53      -0.0203
    107  CD1       27.2400   19.0460   14.8700 C.ar   53  PHE53      -0.0042
    108  CD2       27.2110   21.2910   14.1010 C.ar   53  PHE53      -0.0042
    109  CE1       27.6950   19.4820   16.1040 C.ar   53  PHE53      -0.0003
    110  CE2       27.6460   21.7570   15.3230 C.ar   53  PHE53      -0.0003
    111  CZ        27.8830   20.8440   16.3090 C.ar   53  PHE53      -0.0000
    112  N         17.3560   21.7580    5.9980 N.3    80  THR80      -0.1204
    113  CA        16.5940   21.7340    7.2360 C.3    80  THR80       0.1979
    114  C         15.2440   21.0690    6.9930 C.2    80  THR80       0.2460
    115  O         14.5980   21.3150    5.9780 O.2    80  THR80      -0.2732
    116  CB        16.4440   23.1420    7.8240 C.3    80  THR80       0.1783
    117  OG1       15.6760   22.9840    9.0260 O.3    80  THR80      -0.2211
    118  CG2       15.7820   24.1300    6.9020 C.3    80  THR80       0.0376
    119  N         14.7930   20.2170    7.9040 N.am   81  PRO81      -0.2717
    120  CA        13.4740   19.5890    7.7330 C.3    81  PRO81       0.1535
    121  C         12.3150   20.5600    7.9300 C.2    81  PRO81       0.2598
    122  O         11.1900   20.2320    7.5660 O.2    81  PRO81      -0.2715
    123  CB        13.4080   18.4990    8.8080 C.3    81  PRO81       0.0310
    124  CG        14.5220   18.7290    9.7130 C.3    81  PRO81       0.0237
    125  CD        15.4560   19.7310    9.1020 C.3    81  PRO81       0.0939
    126  N         12.5380   21.7180    8.5110 N.am   82  VAL82      -0.1978
    127  CA        11.5310   22.6770    8.8760 C.3    82  VAL82       0.1596
    128  C         12.1730   24.0390    8.7090 C.2    82  VAL82       0.2287
    129  O         13.3140   24.2010    9.1440 O.2    82  VAL82      -0.2864
    130  CB        11.0530   22.4860   10.3400 C.3    82  VAL82       0.0276
    131  CG1       10.0530   23.5540   10.7390 C.3    82  VAL82       0.0022
    132  CG2       10.3960   21.0970   10.5420 C.3    82  VAL82       0.0022
    133  N         12.9680   27.5890    9.8260 N.3    84  ILE84      -0.1245
    134  CA        13.0920   28.0800   11.1850 C.3    84  ILE84       0.1561
    135  C         13.4020   29.5640   11.1650 C.2    84  ILE84       0.2260
    136  O         14.3950   30.0110   10.5910 O.2    84  ILE84      -0.2867
    137  CB        14.2280   27.3250   11.9260 C.3    84  ILE84       0.0252
    138  CG1       13.9700   25.8170   12.0740 C.3    84  ILE84       0.0019
    139  CG2       14.4940   28.0030   13.2360 C.3    84  ILE84       0.0019
    140  CD1       12.8420   25.4160   12.9270 C.3    84  ILE84       0.0001
@<TRIPOS>BOND
     1   115   114    2
     2   112   113    1
     3    60    61    1
     4   118   116    1
     5   114   113    1
     6   114   119   am
     7   113   116    1
     8   122   121    2
     9    55    56    2
    10    55    54    1
    11    63    62    2
    12   120   119    1
    13   120   121    1
    14   120   123    1
    15   116   117    1
    16   119   125    1
    17   121   126   am
    18    61    62    1
    19    61    64    1
    20    58    57    1
    21    62    69   am
    22   126   127    1
    23    54    57    1
    24    54    53    1
    25    64    65    1
    26   128   127    1
    27   128   129    2
    28   123   124    1
    29   127   130    1
    30    75    74    1
    31    75    76    1
    32   125   124    1
    33    57    59    1
    34    74    73    1
    35    69    70    1
    36   133   134    1
    37    65    66    1
    38    70    73    1
    39    70    71    1
    40   130   132    1
    41   130   131    1
    42   104   103    2
    43   136   135    2
    44    66    67    1
    45    84    82    1
    46    82    81    1
    47   103   102    1
    48   135   134    1
    49   134   137    1
    50    12    13    1
    51    77    71   am
    52    77    78    1
    53    71    72    2
    54    83    81    1
    55   137   138    1
    56   137   139    1
    57   138   140    1
    58    81    78    1
    59    67    68    1
    60   102   105    1
    61   102   101    1
    62   105   106    1
    63    78    79    1
    64    80    79    2
    65    13    16    1
    66    13    14    1
    67    49    50    1
    68    49    46    1
    69    47    48    2
    70    47    46    1
    71    16    17    1
    72    79    85   am
    73    52    50   ar
    74    15    14    2
    75    50    51   ar
    76    46    45    1
    77    10     9    1
    78   106   108   ar
    79   106   107   ar
    80   108   110   ar
    81    85    86    1
    82    17    19    1
    83    17    18    1
    84     9     8    2
    85     9    11    1
    86   107   109   ar
    87     7     8    1
    88     7     6    1
    89    45    39   am
    90    86    87    1
    91   110   111   ar
    92     4     3    2
    93    96    95    2
    94     5     6    1
    95     5     2    1
    96    40    39    2
    97    39    38    1
    98    87    88    2
    99    87    89   am
   100   109   111   ar
   101    36    33    1
   102     3     2    1
   103    24    25    1
   104    24    21    1
   105    20    21    1
   106    27    25   ar
   107    89    90    1
   108    95    94    1
   109     2     1    1
   110    25    26   ar
   111    21    22    1
   112    90    91    1
   113    38    41    1
   114    38    37    1
   115    41    42    1
   116    37    34   am
   117    91    92    2
   118    91    93   am
   119    33    34    1
   120    33    32    1
   121    34    35    2
   122    93    94    1
   123    23    22    2
   124    94    97    1
   125    99    97    1
   126    97    98    1
   127    32    30   am
   128    42    44   ar
   129    42    43   ar
   130    98   100    1
   131    30    31    2
   132    30    29    1
   133    28    29    1
