@<TRIPOS>MOLECULE
tmp/2a1hA01.pdb
 103 99 0 0 0
SMALL
GASTEIGER

@<TRIPOS>ATOM
      1  N          4.1350   -1.6200    1.7210 N.3    28  PHE28      -0.1241
      2  CA         5.1830   -0.6110    1.8620 C.3    28  PHE28       0.1605
      3  C          6.5630   -1.1940    1.6130 C.2    28  PHE28       0.2264
      4  O          6.9890   -2.1410    2.2840 O.2    28  PHE28      -0.2867
      5  CB         5.1360    0.0540    3.2500 C.3    28  PHE28       0.0534
      6  CG         5.9570    1.3280    3.3580 C.ar   28  PHE28      -0.0203
      7  CD1        5.4360    2.5550    2.8930 C.ar   28  PHE28      -0.0042
      8  CD2        7.2440    1.3160    3.9510 C.ar   28  PHE28      -0.0042
      9  CE1        6.1750    3.7570    3.0130 C.ar   28  PHE28      -0.0003
     10  CE2        8.0010    2.5140    4.0800 C.ar   28  PHE28      -0.0003
     11  CZ         7.4600    3.7360    3.6080 C.ar   28  PHE28      -0.0000
     12  N         19.6600    5.9630    7.4190 N.3    73  PHE73      -0.1241
     13  CA        18.8010    6.0440    6.2570 C.3    73  PHE73       0.1605
     14  C         17.9780    7.3190    6.2590 C.2    73  PHE73       0.2264
     15  O         17.9690    8.0770    7.2340 O.2    73  PHE73      -0.2867
     16  CB        17.8780    4.8070    6.1710 C.3    73  PHE73       0.0534
     17  CG        16.8590    4.7110    7.2850 C.ar   73  PHE73      -0.0203
     18  CD1       17.2280    4.2240    8.5480 C.ar   73  PHE73      -0.0042
     19  CD2       15.5230    5.1230    7.0750 C.ar   73  PHE73      -0.0042
     20  CE1       16.2850    4.1510    9.5930 C.ar   73  PHE73      -0.0003
     21  CE2       14.5630    5.0560    8.1100 C.ar   73  PHE73      -0.0003
     22  CZ        14.9400    4.5720    9.3710 C.ar   73  PHE73      -0.0000
     23  N          8.4700    6.4250   -3.0060 N.3   139  TYR139     -0.1241
     24  CA         9.2780    6.5370   -1.7910 C.3   139  TYR139      0.1605
     25  C         10.7580    6.4480   -2.1730 C.2   139  TYR139      0.2264
     26  O         11.1670    5.5420   -2.9020 O.2   139  TYR139     -0.2867
     27  CB         8.9090    5.4200   -0.8050 C.3   139  TYR139      0.0534
     28  CG         9.5190    5.5640    0.5790 C.ar  139  TYR139     -0.0201
     29  CD1        9.0560    6.5460    1.4750 C.ar  139  TYR139     -0.0009
     30  CD2       10.5570    4.7060    1.0050 C.ar  139  TYR139     -0.0009
     31  CE1        9.6100    6.6750    2.7780 C.ar  139  TYR139      0.0417
     32  CE2       11.1190    4.8230    2.3030 C.ar  139  TYR139      0.0417
     33  CZ        10.6400    5.8060    3.1780 C.ar  139  TYR139      0.1957
     34  OH        11.1760    5.9170    4.4380 O.3   139  TYR139     -0.2866
     35  N         14.5750    6.0990   -0.7650 N.3   141  ARG141     -0.1245
     36  CA        15.3080    5.5970    0.3900 C.3   141  ARG141      0.1563
     37  C         16.8490    5.6540    0.3020 C.2   141  ARG141      0.2260
     38  O         17.4810    4.7080   -0.1860 O.2   141  ARG141     -0.2867
     39  CB        14.7900    4.1760    0.7270 C.3   141  ARG141      0.0307
     40  CG        15.5520    3.3280    1.7670 C.3   141  ARG141      0.0489
     41  CD        15.6750    3.9490    3.1570 C.3   141  ARG141      0.2205
     42  NE        14.3940    4.1700    3.8210 N.pl3 141  ARG141     -0.0865
     43  CZ        13.8160    3.3060    4.6500 C.cat 141  ARG141      0.5346
     44  NH1       14.3940    2.1380    4.9240 N.pl3 141  ARG141      0.1354
     45  NH2       12.6930    3.6440    5.2640 N.pl3 141  ARG141      0.1354
     46  N         18.2800    9.5410   12.2980 N.3   200  LYS200     -0.1245
     47  CA        17.6150    8.4120   11.6510 C.3   200  LYS200      0.1561
     48  C         18.6080    7.2710   11.4120 C.2   200  LYS200      0.2260
     49  O         19.0230    7.0070   10.2830 O.2   200  LYS200     -0.2867
     50  CB        16.9190    8.8690   10.3520 C.3   200  LYS200      0.0271
     51  CG        15.4320    8.4860   10.2700 C.3   200  LYS200      0.0035
     52  CD        14.7370    9.0570    9.0250 C.3   200  LYS200      0.0206
     53  CE        13.2490    8.6450    8.9370 C.3   200  LYS200      0.1093
     54  NZ        12.4070    9.3560    9.9010 N.3   200  LYS200     -0.1314
     55  N         15.6000    1.5320   15.4110 N.3   205  TYR205     -0.1241
     56  CA        14.4160    0.8130   14.9220 C.3   205  TYR205      0.1605
     57  C         14.2620   -0.6610   15.2140 C.2   205  TYR205      0.2264
     58  O         13.1510   -1.1050   15.4900 O.2   205  TYR205     -0.2867
     59  CB        14.2170    1.0810   13.4260 C.3   205  TYR205      0.0534
     60  CG        14.1710    2.5540   13.1370 C.ar  205  TYR205     -0.0201
     61  CD1       15.3640    3.2850   12.9900 C.ar  205  TYR205     -0.0009
     62  CD2       12.9580    3.2640   13.1970 C.ar  205  TYR205     -0.0009
     63  CE1       15.3640    4.6870   12.9400 C.ar  205  TYR205      0.0417
     64  CE2       12.9500    4.6750   13.1400 C.ar  205  TYR205      0.0417
     65  CZ        14.1700    5.3720   13.0200 C.ar  205  TYR205      0.1957
     66  OH        14.2240    6.7430   13.0370 O.3   205  TYR205     -0.2866
     67  N          6.6340    5.4300   14.7620 N.3   238  THR238     -0.1203
     68  CA         7.7870    6.0780   14.1540 C.3   238  THR238      0.1994
     69  C          7.3260    7.3600   13.4410 C.2   238  THR238      0.2617
     70  O          7.7720    7.6950   12.3380 O.2   238  THR238     -0.2717
     71  CB         8.6070    5.1130   13.2470 C.3   238  THR238      0.1784
     72  OG1        7.7310    4.3900   12.3780 O.3   238  THR238     -0.2211
     73  CG2        9.3890    4.1210   14.0960 C.3   238  THR238      0.0376
     74  N          6.4360    8.0840   14.1260 N.am  239  MET239     -0.1979
     75  CA         5.8570    9.3500   13.6630 C.3   239  MET239      0.1605
     76  C          5.9550   10.3760   14.7970 C.2   239  MET239      0.2287
     77  O          6.0450   10.0030   15.9630 O.2   239  MET239     -0.2864
     78  CB         4.3690    9.1870   13.3220 C.3   239  MET239      0.0413
     79  CG         4.0490    8.3530   12.0960 C.3   239  MET239      0.0598
     80  SD         2.2690    8.2530   11.8780 S.3   239  MET239     -0.1393
     81  CE         1.8620    6.9120   12.9830 C.3   239  MET239      0.0692
     82  N          4.3720   11.9700    9.6410 N.3   310  GLY310     -0.1210
     83  CA         5.5400   11.3290    9.0540 C.3   310  GLY310      0.1956
     84  C          5.3800   11.2400    7.5520 C.2   310  GLY310      0.2613
     85  O          4.2920   11.4880    7.0520 O.2   310  GLY310     -0.2717
     86  N          6.4410   10.8850    6.8260 N.am  311  THR311     -0.1938
     87  CA         6.3760   10.7810    5.3620 C.3   311  THR311      0.2028
     88  C          5.3870    9.7140    4.8680 C.2   311  THR311      0.2642
     89  O          4.5950    9.9870    3.9650 O.2   311  THR311     -0.2714
     90  CB         7.8040   10.6000    4.7530 C.3   311  THR311      0.1808
     91  OG1        8.5590   11.7940    4.9830 O.3   311  THR311     -0.2208
     92  CG2        7.7710   10.3600    3.2680 C.3   311  THR311      0.0379
     93  N          5.3690    8.5550    5.5320 N.am  312  ALA312     -0.1963
     94  CA         4.4790    7.4400    5.1800 C.3   312  ALA312      0.1728
     95  C          2.9830    7.7680    5.3080 C.2   312  ALA312      0.2616
     96  O          2.1990    7.4880    4.3920 O.2   312  ALA312     -0.2715
     97  CB         4.8290    6.2060    6.0100 C.3   312  ALA312      0.0334
     98  N          2.5830    8.3650    6.4310 N.am  313  CYS313     -0.1968
     99  CA         1.1670    8.6630    6.6650 C.3   313  CYS313      0.1712
    100  C          0.6630   10.1040    6.5470 C.2   313  CYS313      0.2296
    101  O         -0.5500   10.3130    6.4210 O.2   313  CYS313     -0.2864
    102  CB         0.7420    8.0940    8.0210 C.3   313  CYS313      0.0983
    103  SG        -1.0410    8.1530    8.3110 S.3   313  CYS313     -0.0798
@<TRIPOS>BOND
     1    23    24    1
     2    26    25    2
     3    25    24    1
     4    24    27    1
     5    27    28    1
     6    35    36    1
     7    38    37    2
     8    37    36    1
     9    36    39    1
    10    28    30   ar
    11    28    29   ar
    12    39    40    1
    13    30    32   ar
    14    29    31   ar
    15     3     2    1
    16     3     4    2
    17     1     2    1
    18    40    41    1
    19     2     5    1
    20    32    33   ar
    21    31    33   ar
    22     7     9   ar
    23     7     6   ar
    24     9    11   ar
    25    41    42    1
    26    33    34    1
    27     5     6    1
    28    92    90    1
    29     6     8   ar
    30    11    10   ar
    31    42    43    2
    32     8    10   ar
    33    89    88    2
    34    96    95    2
    35    43    44    1
    36    43    45    1
    37    90    91    1
    38    90    87    1
    39    88    87    1
    40    88    93   am
    41    94    95    1
    42    94    93    1
    43    94    97    1
    44    95    98   am
    45    87    86    1
    46    16    13    1
    47    16    17    1
    48    13    14    1
    49    13    12    1
    50    14    15    2
    51   101   100    2
    52    98    99    1
    53   100    99    1
    54    99   102    1
    55    86    84   am
    56    85    84    2
    57    19    17   ar
    58    19    21   ar
    59    17    18   ar
    60    84    83    1
    61   102   103    1
    62    21    22   ar
    63    18    20   ar
    64    53    52    1
    65    53    54    1
    66    52    51    1
    67    83    82    1
    68    22    20   ar
    69    51    50    1
    70    49    48    2
    71    50    47    1
    72    48    47    1
    73    47    46    1
    74    80    79    1
    75    80    81    1
    76    79    78    1
    77    70    69    2
    78    72    71    1
    79    63    61   ar
    80    63    65   ar
    81    61    60   ar
    82    65    66    1
    83    65    64   ar
    84    60    62   ar
    85    60    59    1
    86    64    62   ar
    87    71    73    1
    88    71    68    1
    89    78    75    1
    90    59    56    1
    91    69    74   am
    92    69    68    1
    93    75    74    1
    94    75    76    1
    95    68    67    1
    96    76    77    2
    97    56    57    1
    98    56    55    1
    99    57    58    2
