@<TRIPOS>MOLECULE
tmp/2a1tC00.pdb
 200 192 0 0 0
SMALL
GASTEIGER

@<TRIPOS>ATOM
      1  N         46.6720   34.0800   24.9730 N.3    95  LEU95      -0.1245
      2  CA        45.5910   33.5670   24.1520 C.3    95  LEU95       0.1561
      3  C         46.0350   33.0760   22.7720 C.2    95  LEU95       0.2260
      4  O         45.5740   32.0460   22.3060 O.2    95  LEU95      -0.2867
      5  CB        44.5470   34.6450   23.9690 C.3    95  LEU95       0.0270
      6  CG        43.2710   34.4280   24.7680 C.3    95  LEU95       0.0019
      7  CD1       42.5940   35.7870   25.1050 C.3    95  LEU95       0.0001
      8  CD2       42.3250   33.4630   23.9910 C.3    95  LEU95       0.0001
      9  N         44.9340   35.7870   18.7540 N.3   125  TYR125     -0.1241
     10  CA        43.9340   34.7570   18.6130 C.3   125  TYR125      0.1605
     11  C         42.9070   35.1860   17.5830 C.2   125  TYR125      0.2264
     12  O         42.0970   36.0700   17.8530 O.2   125  TYR125     -0.2867
     13  CB        43.2560   34.6220   19.9690 C.3   125  TYR125      0.0534
     14  CG        42.3260   33.4600   20.1650 C.ar  125  TYR125     -0.0201
     15  CD1       42.8190   32.2070   20.4750 C.ar  125  TYR125     -0.0009
     16  CD2       40.9500   33.6290   20.0940 C.ar  125  TYR125     -0.0009
     17  CE1       41.9920   31.1570   20.6760 C.ar  125  TYR125      0.0417
     18  CE2       40.0910   32.5710   20.3070 C.ar  125  TYR125      0.0417
     19  CZ        40.6170   31.3300   20.6040 C.ar  125  TYR125      0.1957
     20  OH        39.7760   30.2450   20.8250 O.3   125  TYR125     -0.2866
     21  N         39.7940   34.4640   15.7590 N.3   127  VAL127     -0.1231
     22  CA        38.5940   33.6130   15.6930 C.3   127  VAL127      0.1692
     23  C         37.3300   34.3580   15.2800 C.2   127  VAL127      0.2593
     24  O         36.6800   34.0030   14.2950 O.2   127  VAL127     -0.2718
     25  CB        38.3540   32.9110   17.0360 C.3   127  VAL127      0.0266
     26  CG1       37.0860   32.0400   17.0000 C.3   127  VAL127      0.0020
     27  CG2       39.5560   32.0620   17.3680 C.3   127  VAL127      0.0020
     28  N         37.0050   35.3870   16.0520 N.am  128  THR128     -0.1939
     29  CA        35.7630   36.0990   15.9160 C.3   128  THR128      0.2028
     30  C         35.6490   36.7310   14.5490 C.2   128  THR128      0.2642
     31  O         36.6570   37.1590   13.9670 O.2   128  THR128     -0.2714
     32  CB        35.6350   37.1230   17.0560 C.3   128  THR128      0.1808
     33  OG1       35.3260   36.3970   18.2440 O.3   128  THR128     -0.2208
     34  CG2       34.5260   38.1480   16.8040 C.3   128  THR128      0.0379
     35  N         34.4060   36.7540   14.0490 N.am  129  GLU129     -0.1976
     36  CA        34.0570   37.2490   12.7150 C.3   129  GLU129      0.1602
     37  C         32.9020   38.2010   12.8380 C.2   129  GLU129      0.2287
     38  O         32.2310   38.2160   13.8650 O.2   129  GLU129     -0.2864
     39  CB        33.6810   36.0870   11.8110 C.3   129  GLU129      0.0415
     40  CG        34.8890   35.1910   11.5390 C.3   129  GLU129      0.1163
     41  CD        34.6030   34.0000   10.6680 C.2   129  GLU129      0.3649
     42  OE1       33.4200   33.7090   10.4140 O.co2 129  GLU129     -0.2457
     43  OE2       35.5690   33.3420   10.2340 O.co2 129  GLU129     -0.2457
     44  N         30.0590   38.0220   11.7960 N.3   131  GLY131     -0.1210
     45  CA        28.7970   37.2860   11.9590 C.3   131  GLY131      0.1956
     46  C         28.7490   36.2790   13.0910 C.2   131  GLY131      0.2612
     47  O         27.6620   35.8070   13.4510 O.2   131  GLY131     -0.2717
     48  N         29.9030   35.9710   13.6850 N.am  132  ALA132     -0.1965
     49  CA        29.9450   35.0170   14.7720 C.3   132  ALA132      0.1728
     50  C         31.0190   35.3620   15.7810 C.2   132  ALA132      0.2617
     51  O         32.1600   35.6040   15.4190 O.2   132  ALA132     -0.2715
     52  CB        30.1710   33.6320   14.2200 C.3   132  ALA132      0.0334
     53  N         30.6470   35.3690   17.0530 N.am  133  GLY133     -0.1940
     54  CA        31.6020   35.5120   18.1600 C.3   133  GLY133      0.2014
     55  C         31.3740   34.4760   19.2480 C.2   133  GLY133      0.2640
     56  O         32.2010   33.6030   19.4510 O.2   133  GLY133     -0.2714
     57  N         30.2290   34.5840   19.9130 N.am  134  SER134     -0.1935
     58  CA        29.7490   33.6060   20.8790 C.3   134  SER134      0.2055
     59  C         29.6170   32.2190   20.2250 C.2   134  SER134      0.2643
     60  O         30.1200   31.2300   20.7320 O.2   134  SER134     -0.2714
     61  CB        28.3650   34.0430   21.4340 C.3   134  SER134      0.2130
     62  OG        28.2630   35.4360   21.7330 O.3   134  SER134     -0.2179
     63  N         28.9000   32.1570   19.1090 N.am  135  ASP135     -0.1971
     64  CA        28.7300   30.9410   18.3420 C.3   135  ASP135      0.1709
     65  C         29.9750   30.7730   17.5080 C.2   135  ASP135      0.2293
     66  O         29.9960   31.1060   16.3270 O.2   135  ASP135     -0.2864
     67  CB        27.5040   31.0650   17.4260 C.3   135  ASP135      0.1436
     68  CG        27.1650   29.7670   16.6950 C.2   135  ASP135      0.3671
     69  OD1       27.6890   28.6980   17.1080 O.co2 135  ASP135     -0.2456
     70  OD2       26.3690   29.8190   15.7130 O.co2 135  ASP135     -0.2456
     71  N         37.3450   42.0860   15.7040 N.3   158  TRP158     -0.1227
     72  CA        37.7300   42.3370   17.0770 C.3   158  TRP158      0.1737
     73  C         38.9990   41.6020   17.5230 C.2   158  TRP158      0.2595
     74  O         39.0720   41.1280   18.6340 O.2   158  TRP158     -0.2718
     75  CB        36.5720   42.0380   18.0020 C.3   158  TRP158      0.0564
     76  CG        35.2840   42.6200   17.5450 C.ar  158  TRP158      0.0003
     77  CD1       34.1830   41.9400   17.0940 C.ar  158  TRP158      0.0946
     78  CD2       34.9380   43.9970   17.5180 C.ar  158  TRP158      0.0152
     79  NE1       33.1750   42.8110   16.7950 N.ar  158  TRP158     -0.2442
     80  CE2       33.6130   44.0840   17.0440 C.ar  158  TRP158      0.0810
     81  CE3       35.6220   45.1730   17.8380 C.ar  158  TRP158      0.0012
     82  CZ2       32.9700   45.2910   16.8770 C.ar  158  TRP158      0.0191
     83  CZ3       34.9960   46.3530   17.6770 C.ar  158  TRP158      0.0001
     84  CH2       33.6760   46.4130   17.1960 C.ar  158  TRP158      0.0015
     85  N         40.0100   41.5640   16.6550 N.am  159  ILE159     -0.1966
     86  CA        41.2720   40.9010   16.9620 C.3   159  ILE159      0.1727
     87  C         42.2760   41.7820   17.7290 C.2   159  ILE159      0.2616
     88  O         43.0330   42.5170   17.1190 O.2   159  ILE159     -0.2715
     89  CB        41.9250   40.3640   15.6750 C.3   159  ILE159      0.0290
     90  CG1       40.9350   39.4520   14.9140 C.3   159  ILE159      0.0022
     91  CG2       43.2050   39.5550   16.0000 C.3   159  ILE159      0.0023
     92  CD1       40.3820   38.2060   15.7580 C.3   159  ILE159      0.0001
     93  N         42.2630   41.6680   19.0700 N.am  160  THR160     -0.1951
     94  CA        43.2850   42.2370   19.9910 C.3   160  THR160      0.1897
     95  C         44.7060   41.9410   19.5060 C.2   160  THR160      0.2313
     96  O         45.0380   40.7940   19.1900 O.2   160  THR160     -0.2863
     97  CB        43.1460   41.6580   21.4460 C.3   160  THR160      0.1794
     98  OG1       41.8930   42.0530   22.0260 O.3   160  THR160     -0.2208
     99  CG2       44.2810   42.1440   22.3560 C.3   160  THR160      0.0378
    100  N         36.7100   51.7880   20.6460 N.3   206  ASN206     -0.1240
    101  CA        35.8000   51.3050   21.6700 C.3   206  ASN206      0.1653
    102  C         35.6770   52.2490   22.8870 C.2   206  ASN206      0.2266
    103  O         36.4880   53.1470   23.0960 O.2   206  ASN206     -0.2867
    104  CB        36.2590   49.8960   22.0980 C.3   206  ASN206      0.1155
    105  CG        36.3800   48.9290   20.9140 C.2   206  ASN206      0.2627
    106  OD1       35.7500   49.1260   19.8630 O.2   206  ASN206     -0.2716
    107  ND2       37.1750   47.8840   21.0880 N.am  206  ASN206     -0.0877
    108  N         36.2590   51.3580   25.9470 N.3   208  GLY208     -0.1210
    109  CA        37.2270   51.0260   26.9760 C.3   208  GLY208      0.1956
    110  C         38.4780   50.3440   26.4840 C.2   208  GLY208      0.2611
    111  O         38.5590   49.9060   25.3260 O.2   208  GLY208     -0.2717
    112  N         39.4550   50.2470   27.3810 N.am  209  GLN209     -0.1979
    113  CA        40.7230   49.6080   27.0580 C.3   209  GLN209      0.1601
    114  C         41.2100   50.1320   25.7250 C.2   209  GLN209      0.2287
    115  O         41.5340   49.3690   24.8080 O.2   209  GLN209     -0.2864
    116  CB        40.5520   48.0920   27.0120 C.3   209  GLN209      0.0394
    117  CG        39.8710   47.5430   28.2560 C.3   209  GLN209      0.0908
    118  CD        40.0560   46.0450   28.4520 C.2   209  GLN209      0.2608
    119  OE1       40.4840   45.3070   27.5460 O.2   209  GLN209     -0.2717
    120  NE2       39.7150   45.5850   29.6490 N.am  209  GLN209     -0.0878
    121  N         42.5680   46.6640   18.8250 N.3   214  THR214     -0.1218
    122  CA        41.6630   45.6280   18.4080 C.3   214  THR214      0.1862
    123  C         41.2220   45.9750   16.9610 C.2   214  THR214      0.2287
    124  O         40.8920   47.1180   16.6420 O.2   214  THR214     -0.2866
    125  CB        40.5200   45.4660   19.4680 C.3   214  THR214      0.1770
    126  OG1       39.2500   45.2770   18.8100 O.3   214  THR214     -0.2211
    127  CG2       40.4800   46.6840   20.4380 C.3   214  THR214      0.0375
    128  N         33.6160   45.4390   29.0260 N.3   363  ILE363     -0.1245
    129  CA        34.1170   44.4320   28.1050 C.3   363  ILE363      0.1561
    130  C         34.2630   43.0600   28.7710 C.2   363  ILE363      0.2260
    131  O         34.1620   42.0340   28.1030 O.2   363  ILE363     -0.2867
    132  CB        35.4300   44.9160   27.4450 C.3   363  ILE363      0.0252
    133  CG1       35.9210   43.9530   26.3760 C.3   363  ILE363      0.0019
    134  CG2       36.5190   45.1350   28.4700 C.3   363  ILE363      0.0019
    135  CD1       34.9050   43.6110   25.3880 C.3   363  ILE363      0.0001
    136  N         31.5240   40.7730   28.0380 N.3   366  ILE366     -0.1231
    137  CA        31.3820   40.4700   26.5930 C.3   366  ILE366      0.1692
    138  C         32.4010   39.4410   26.1200 C.2   366  ILE366      0.2592
    139  O         32.0140   38.3840   25.6520 O.2   366  ILE366     -0.2718
    140  CB        31.5290   41.7050   25.6590 C.3   366  ILE366      0.0266
    141  CG1       31.0170   42.9900   26.3120 C.3   366  ILE366      0.0019
    142  CG2       30.8290   41.4340   24.3120 C.3   366  ILE366      0.0020
    143  CD1       29.5880   42.9800   26.6350 C.3   366  ILE366      0.0001
    144  N         33.6880   39.7400   26.2420 N.am  367  TYR367     -0.1962
    145  CA        34.7060   38.9190   25.5790 C.3   367  TYR367      0.1771
    146  C         35.3020   37.8010   26.4290 C.2   367  TYR367      0.2619
    147  O         35.0690   37.7180   27.6220 O.2   367  TYR367     -0.2715
    148  CB        35.7790   39.7970   24.9640 C.3   367  TYR367      0.0574
    149  CG        36.8290   40.3480   25.8830 C.ar  367  TYR367     -0.0198
    150  CD1       36.6310   40.4690   27.2510 C.ar  367  TYR367     -0.0009
    151  CD2       38.0370   40.8150   25.3540 C.ar  367  TYR367     -0.0009
    152  CE1       37.6170   41.0200   28.0640 C.ar  367  TYR367      0.0417
    153  CE2       39.0060   41.3560   26.1550 C.ar  367  TYR367      0.0417
    154  CZ        38.7880   41.4600   27.5080 C.ar  367  TYR367      0.1957
    155  OH        39.7630   42.0090   28.2940 O.3   367  TYR367     -0.2866
    156  N         36.0660   36.9200   25.7960 N.am  368  GLU368     -0.1963
    157  CA        36.4080   35.6380   26.4260 C.3   368  GLU368      0.1733
    158  C         35.1120   35.0280   27.0110 C.2   368  GLU368      0.2617
    159  O         35.1000   34.4830   28.1160 O.2   368  GLU368     -0.2715
    160  CB        37.5580   35.7840   27.4640 C.3   368  GLU368      0.0429
    161  CG        39.0000   35.6130   26.8860 C.3   368  GLU368      0.1163
    162  CD        39.5920   34.1650   27.0170 C.2   368  GLU368      0.3649
    163  OE1       38.9390   33.1730   26.5850 O.co2 368  GLU368     -0.2457
    164  OE2       40.7410   34.0230   27.5180 O.co2 368  GLU368     -0.2457
    165  N         34.0330   35.1500   26.2270 N.am  369  GLY369     -0.1940
    166  CA        32.7180   34.5230   26.4930 C.3   369  GLY369      0.2014
    167  C         31.8130   35.3850   27.3320 C.2   369  GLY369      0.2639
    168  O         32.1390   35.6720   28.4770 O.2   369  GLY369     -0.2714
    169  N         30.6830   35.8030   26.7840 N.am  370  THR370     -0.1950
    170  CA        29.7350   36.6650   27.5040 C.3   370  THR370      0.1897
    171  C         29.2760   36.1240   28.8600 C.2   370  THR370      0.2313
    172  O         29.2590   34.9260   29.1120 O.2   370  THR370     -0.2863
    173  CB        28.3850   36.8730   26.7310 C.3   370  THR370      0.1794
    174  OG1       27.5460   35.7130   26.8740 O.3   370  THR370     -0.2208
    175  CG2       28.5990   37.1420   25.2600 C.3   370  THR370      0.0378
    176  N         26.3070   35.6880   29.6360 N.3   372  GLN372     -0.1231
    177  CA        25.2380   34.7050   29.3930 C.3   372  GLN372      0.1698
    178  C         25.8270   33.3400   29.0140 C.2   372  GLN372      0.2592
    179  O         25.4400   32.2990   29.5050 O.2   372  GLN372     -0.2718
    180  CB        24.2570   35.2070   28.3170 C.3   372  GLN372      0.0381
    181  CG        23.3200   36.3300   28.7830 C.3   372  GLN372      0.0905
    182  CD        23.9950   37.7090   28.8480 C.2   372  GLN372      0.2608
    183  OE1       24.8410   38.0360   28.0100 O.2   372  GLN372     -0.2717
    184  NE2       23.6260   38.5170   29.8520 N.am  372  GLN372     -0.0878
    185  N         26.8070   33.3810   28.1500 N.am  373  ILE373     -0.1980
    186  CA        27.4910   32.1840   27.7080 C.3   373  ILE373      0.1595
    187  C         28.1320   31.4020   28.8540 C.2   373  ILE373      0.2287
    188  O         28.1020   30.1580   28.8720 O.2   373  ILE373     -0.2864
    189  CB        28.5350   32.5950   26.6660 C.3   373  ILE373      0.0276
    190  CG1       27.8240   32.9710   25.3610 C.3   373  ILE373      0.0022
    191  CG2       29.5540   31.5190   26.4520 C.3   373  ILE373      0.0022
    192  CD1       26.8990   31.9370   24.8160 C.3   373  ILE373      0.0001
    193  N         25.5300   29.5250   30.5960 N.3   376  LEU376     -0.1245
    194  CA        25.1550   28.3010   29.8590 C.3   376  LEU376      0.1561
    195  C         26.1420   27.1790   30.1150 C.2   376  LEU376      0.2260
    196  O         25.7320   26.0470   30.3780 O.2   376  LEU376     -0.2867
    197  CB        25.0560   28.5160   28.3590 C.3   376  LEU376      0.0270
    198  CG        23.9660   29.4960   27.9140 C.3   376  LEU376      0.0019
    199  CD1       24.1120   29.7250   26.4170 C.3   376  LEU376      0.0001
    200  CD2       22.5760   28.9900   28.2440 C.3   376  LEU376      0.0001
@<TRIPOS>BOND
     1    43    41   ar
     2    42    41   ar
     3    41    40    1
     4    40    39    1
     5    44    45    1
     6    39    36    1
     7    45    46    1
     8    36    37    1
     9    36    35    1
    10    37    38    2
    11    46    47    2
    12    46    48   am
    13    48    49    1
    14    31    30    2
    15    35    30   am
    16    52    49    1
    17    24    23    2
    18    30    29    1
    19    49    50    1
    20    90    89    1
    21    90    92    1
    22    23    22    1
    23    23    28   am
    24    51    50    2
    25    89    91    1
    26    89    86    1
    27    22    21    1
    28    22    25    1
    29    71    72    1
    30    70    68   ar
    31    50    53   am
    32    29    28    1
    33    29    32    1
    34    66    65    2
    35   124   123    2
    36    85    86    1
    37    85    73   am
    38    68    69   ar
    39    68    67    1
    40    79    80   ar
    41    79    77   ar
    42    34    32    1
    43    82    80   ar
    44    82    84   ar
    45   123   122    1
    46    86    87    1
    47    26    25    1
    48    25    27    1
    49    80    78   ar
    50    53    54    1
    51    32    33    1
    52    72    73    1
    53    72    75    1
    54    77    76   ar
    55    88    87    2
    56    84    83   ar
    57    67    64    1
    58    65    64    1
    59    78    76   ar
    60    78    81   ar
    61    73    74    2
    62    76    75    1
    63    11    12    2
    64    11    10    1
    65    83    81   ar
    66    87    93   am
    67    54    55    1
    68    64    63    1
    69   122   121    1
    70   122   125    1
    71    10     9    1
    72    10    13    1
    73   126   125    1
    74    93    94    1
    75    63    59   am
    76    96    95    2
    77    55    56    2
    78    55    57   am
    79   125   127    1
    80    95    94    1
    81   106   105    2
    82    57    58    1
    83    13    14    1
    84    94    97    1
    85    16    14   ar
    86    16    18   ar
    87    14    15   ar
    88    59    60    2
    89    59    58    1
    90    18    19   ar
    91    15    17   ar
    92    19    17   ar
    93    19    20    1
    94   100   101    1
    95    58    61    1
    96   105   107   am
    97   105   104    1
    98    61    62    1
    99    97    98    1
   100    97    99    1
   101   101   104    1
   102   101   102    1
   103     4     3    2
   104     3     2    1
   105   102   103    2
   106     5     2    1
   107     5     6    1
   108     8     6    1
   109     2     1    1
   110   142   140    1
   111     6     7    1
   112   115   114    2
   113   192   190    1
   114   148   145    1
   115   148   149    1
   116   175   173    1
   117   111   110    2
   118   151   149   ar
   119   151   153   ar
   120   190   189    1
   121   135   133    1
   122   145   144    1
   123   145   146    1
   124   139   138    2
   125   140   141    1
   126   140   137    1
   127   114   113    1
   128   156   157    1
   129   156   146   am
   130   149   150   ar
   131   108   109    1
   132   138   144   am
   133   138   137    1
   134   153   154   ar
   135   165   166    1
   136   165   158   am
   137   141   143    1
   138   133   132    1
   139   199   198    1
   140   157   158    1
   141   157   160    1
   142   146   147    2
   143   191   189    1
   144   110   109    1
   145   110   112   am
   146   166   167    1
   147   163   162   ar
   148   137   136    1
   149   189   186    1
   150   173   174    1
   151   173   170    1
   152   169   167   am
   153   169   170    1
   154   161   162    1
   155   161   160    1
   156   158   159    2
   157   116   113    1
   158   116   117    1
   159   162   164   ar
   160   113   112    1
   161   150   152   ar
   162   167   168    2
   163   132   129    1
   164   132   134    1
   165   170   171    1
   166   154   152   ar
   167   154   155    1
   168   119   118    2
   169   186   185    1
   170   186   187    1
   171   198   200    1
   172   198   197    1
   173   183   182    2
   174   131   130    2
   175   129   130    1
   176   129   128    1
   177   185   178   am
   178   117   118    1
   179   180   181    1
   180   180   177    1
   181   197   194    1
   182   118   120   am
   183   181   182    1
   184   182   184   am
   185   187   188    2
   186   171   172    2
   187   178   177    1
   188   178   179    2
   189   177   176    1
   190   194   195    1
   191   194   193    1
   192   195   196    2
