@<TRIPOS>MOLECULE
tmp/2a1tC01.pdb
 124 120 0 0 0
SMALL
GASTEIGER

@<TRIPOS>ATOM
      1  N         39.1360   58.0780   48.7720 N.3   269  TYR269     -0.1241
      2  CA        38.3960   59.3060   48.6240 C.3   269  TYR269      0.1605
      3  C         37.3470   59.4590   49.7310 C.2   269  TYR269      0.2264
      4  O         37.0080   60.5660   50.1600 O.2   269  TYR269     -0.2867
      5  CB        37.7290   59.3030   47.2620 C.3   269  TYR269      0.0534
      6  CG        36.9700   60.5740   46.9120 C.ar  269  TYR269     -0.0201
      7  CD1       37.5790   61.5820   46.1830 C.ar  269  TYR269     -0.0009
      8  CD2       35.6460   60.7460   47.2750 C.ar  269  TYR269     -0.0009
      9  CE1       36.9040   62.7200   45.8390 C.ar  269  TYR269      0.0417
     10  CE2       34.9720   61.8840   46.9340 C.ar  269  TYR269      0.0417
     11  CZ        35.6080   62.8790   46.2160 C.ar  269  TYR269      0.1957
     12  OH        34.9550   64.0370   45.8600 O.3   269  TYR269     -0.2866
     13  N         36.9250   63.0600   51.5420 N.3   273  ARG273     -0.1245
     14  CA        35.7220   63.8780   51.2510 C.3   273  ARG273      0.1563
     15  C         34.6760   63.7910   52.3640 C.2   273  ARG273      0.2260
     16  O         34.2500   62.7150   52.7370 O.2   273  ARG273     -0.2867
     17  CB        35.1400   63.5160   49.8730 C.3   273  ARG273      0.0307
     18  CG        33.6620   63.7670   49.5960 C.3   273  ARG273      0.0489
     19  CD        33.1780   65.1760   49.8030 C.3   273  ARG273      0.2205
     20  NE        33.7390   66.2320   48.9480 N.pl3 273  ARG273     -0.0865
     21  CZ        33.0400   67.0470   48.1520 C.cat 273  ARG273      0.5346
     22  NH1       31.7350   66.9000   47.9920 N.pl3 273  ARG273      0.1354
     23  NH2       33.6640   68.0110   47.4960 N.pl3 273  ARG273      0.1354
     24  N         30.8460   65.3920   53.9100 N.3   275  THR275     -0.1203
     25  CA        29.5640   65.9920   53.6240 C.3   275  THR275      0.1994
     26  C         28.7960   65.9920   54.9390 C.2   275  THR275      0.2617
     27  O         29.0230   65.1470   55.7920 O.2   275  THR275     -0.2717
     28  CB        28.8050   65.1620   52.5910 C.3   275  THR275      0.1784
     29  OG1       28.7410   63.7850   53.0220 O.3   275  THR275     -0.2211
     30  CG2       29.4890   65.2390   51.2420 C.3   275  THR275      0.0376
     31  N         27.9140   66.9460   55.1350 N.am  276  PHE276     -0.1975
     32  CA        27.1130   67.0010   56.3680 C.3   276  PHE276      0.1639
     33  C         27.8920   66.8790   57.6510 C.2   276  PHE276      0.2290
     34  O         27.3600   66.3740   58.6080 O.2   276  PHE276     -0.2864
     35  CB        26.0150   65.9350   56.3660 C.3   276  PHE276      0.0560
     36  CG        25.1780   65.9850   55.1570 C.ar  276  PHE276     -0.0200
     37  CD1       24.1980   66.9140   55.0530 C.ar  276  PHE276     -0.0042
     38  CD2       25.4300   65.1400   54.0930 C.ar  276  PHE276     -0.0042
     39  CE1       23.4520   66.9980   53.9310 C.ar  276  PHE276     -0.0003
     40  CE2       24.6920   65.2210   52.9560 C.ar  276  PHE276     -0.0003
     41  CZ        23.6970   66.1560   52.8700 C.ar  276  PHE276     -0.0000
     42  N         32.8530   60.7060   54.4120 N.3   280  LEU280     -0.1245
     43  CA        31.9550   59.7940   53.6890 C.3   280  LEU280      0.1561
     44  C         31.8060   58.4540   54.3990 C.2   280  LEU280      0.2260
     45  O         30.7250   57.8650   54.4300 O.2   280  LEU280     -0.2867
     46  CB        32.4290   59.5520   52.2520 C.3   280  LEU280      0.0270
     47  CG        32.3140   60.7440   51.2980 C.3   280  LEU280      0.0019
     48  CD1       32.2320   60.2380   49.8730 C.3   280  LEU280      0.0001
     49  CD2       31.1290   61.6990   51.5890 C.3   280  LEU280      0.0001
     50  N         28.9900   57.9690   56.9890 N.3   283  HIS283     -0.1241
     51  CA        27.6360   57.7580   56.4990 C.3   283  HIS283      0.1621
     52  C         27.4560   56.2720   56.1970 C.2   283  HIS283      0.2264
     53  O         28.1950   55.6700   55.4240 O.2   283  HIS283     -0.2867
     54  CB        27.3500   58.5970   55.2610 C.3   283  HIS283      0.0745
     55  CG        27.4250   60.0750   55.5030 C.ar  283  HIS283      0.0817
     56  ND1       26.8070   60.6890   56.5670 N.ar  283  HIS283     -0.2268
     57  CD2       28.0390   61.0610   54.8030 C.ar  283  HIS283      0.1154
     58  CE1       27.0490   61.9870   56.5200 C.ar  283  HIS283      0.1986
     59  NE2       27.7800   62.2400   55.4500 N.ar  283  HIS283     -0.2212
     60  N         25.5020   54.3100   54.6330 N.3   285  ALA285     -0.1231
     61  CA        25.1530   53.7680   53.3230 C.3   285  ALA285      0.1694
     62  C         26.3950   53.5960   52.4680 C.2   285  ALA285      0.2591
     63  O         26.5690   52.5700   51.8090 O.2   285  ALA285     -0.2718
     64  CB        24.1340   54.6740   52.6070 C.3   285  ALA285      0.0304
     65  N         27.2400   54.6190   52.4770 N.am  286  ILE286     -0.1980
     66  CA        28.5740   54.5660   51.8620 C.3   286  ILE286      0.1595
     67  C         29.4290   53.4030   52.4190 C.2   286  ILE286      0.2287
     68  O         30.0350   52.6350   51.6740 O.2   286  ILE286     -0.2864
     69  CB        29.2910   55.9270   52.0980 C.3   286  ILE286      0.0276
     70  CG1       28.6130   57.0270   51.2730 C.3   286  ILE286      0.0022
     71  CG2       30.7670   55.8450   51.8330 C.3   286  ILE286      0.0022
     72  CD1       28.5230   56.7830   49.7470 C.3   286  ILE286      0.0001
     73  N         30.2210   56.5660   41.6650 N.3   341  GLN341     -0.1231
     74  CA        29.1420   57.0830   42.4950 C.3   341  GLN341      0.1698
     75  C         29.6910   57.7170   43.7580 C.2   341  GLN341      0.2592
     76  O         29.3400   58.8370   44.1170 O.2   341  GLN341     -0.2718
     77  CB        28.1810   55.9460   42.8680 C.3   341  GLN341      0.0381
     78  CG        26.9340   56.3480   43.6820 C.3   341  GLN341      0.0905
     79  CD        26.0210   57.2590   42.9280 C.2   341  GLN341      0.2608
     80  OE1       25.2460   57.9830   43.5330 O.2   341  GLN341     -0.2717
     81  NE2       26.1170   57.2550   41.5950 N.am  341  GLN341     -0.0878
     82  N         30.5660   56.9850   44.4270 N.am  342  ILE342     -0.1966
     83  CA        31.0690   57.4490   45.6900 C.3   342  ILE342      0.1727
     84  C         31.8510   58.7540   45.4950 C.2   342  ILE342      0.2616
     85  O         31.7870   59.6280   46.3620 O.2   342  ILE342     -0.2715
     86  CB        31.9580   56.4280   46.3460 C.3   342  ILE342      0.0290
     87  CG1       31.1160   55.3350   46.9730 C.3   342  ILE342      0.0022
     88  CG2       32.7830   57.0870   47.4150 C.3   342  ILE342      0.0023
     89  CD1       31.9200   54.0200   47.2730 C.3   342  ILE342      0.0001
     90  N         32.5910   58.8850   44.3830 N.am  343  LEU343     -0.1963
     91  CA        33.2740   60.1660   44.1050 C.3   343  LEU343      0.1728
     92  C         32.3190   61.2670   43.6210 C.2   343  LEU343      0.2617
     93  O         32.7860   62.3030   43.1930 O.2   343  LEU343     -0.2715
     94  CB        34.4410   60.0120   43.1070 C.3   343  LEU343      0.0311
     95  CG        35.8180   59.6830   43.7180 C.3   343  LEU343      0.0022
     96  CD1       35.8500   58.3340   44.4280 C.3   343  LEU343      0.0001
     97  CD2       36.9120   59.7530   42.6620 C.3   343  LEU343      0.0001
     98  N         31.0030   61.0570   43.7060 N.am  344  GLY344     -0.1940
     99  CA        30.0160   62.0120   43.1870 C.3   344  GLY344      0.2014
    100  C         30.3530   62.6170   41.8290 C.2   344  GLY344      0.2639
    101  O         30.6550   61.9040   40.8730 O.2   344  GLY344     -0.2714
    102  N         30.3170   63.9360   41.7480 N.am  345  GLY345     -0.1939
    103  CA        30.5460   64.6310   40.5010 C.3   345  GLY345      0.2014
    104  C         31.9630   64.4490   39.9960 C.2   345  GLY345      0.2638
    105  O         32.1690   64.1850   38.8020 O.2   345  GLY345     -0.2714
    106  N         32.9440   64.5860   40.8830 N.am  346  ASN346     -0.1972
    107  CA        34.3250   64.2810   40.5210 C.3   346  ASN346      0.1688
    108  C         34.5080   62.8930   39.8010 C.2   346  ASN346      0.2292
    109  O         35.2820   62.7640   38.8300 O.2   346  ASN346     -0.2864
    110  CB        35.2050   64.3640   41.7680 C.3   346  ASN346      0.1181
    111  CG        35.4090   65.7880   42.2450 C.2   346  ASN346      0.2629
    112  OD1       35.8010   66.6630   41.4710 O.2   346  ASN346     -0.2716
    113  ND2       35.1740   66.0230   43.5370 N.am  346  ASN346     -0.0877
    114  N         32.5300   61.2640   37.8680 N.3   348  PHE348     -0.1241
    115  CA        32.0970   61.3790   36.4700 C.3   348  PHE348      0.1605
    116  C         33.0810   62.1870   35.6340 C.2   348  PHE348      0.2264
    117  O         32.9560   62.3020   34.4290 O.2   348  PHE348     -0.2867
    118  CB        30.7680   62.0910   36.4540 C.3   348  PHE348      0.0534
    119  CG        30.0290   61.9810   35.1820 C.ar  348  PHE348     -0.0203
    120  CD1       29.5310   60.7820   34.7720 C.ar  348  PHE348     -0.0042
    121  CD2       29.7570   63.1130   34.4210 C.ar  348  PHE348     -0.0042
    122  CE1       28.7710   60.6830   33.5660 C.ar  348  PHE348     -0.0003
    123  CE2       29.0020   63.0400   33.2220 C.ar  348  PHE348     -0.0003
    124  CZ        28.5010   61.8230   32.7990 C.ar  348  PHE348     -0.0000
@<TRIPOS>BOND
     1   124   123   ar
     2   124   122   ar
     3   123   121   ar
     4   122   120   ar
     5   121   119   ar
     6   117   116    2
     7   120   119   ar
     8   119   118    1
     9   116   115    1
    10   118   115    1
    11   115   114    1
    12   105   104    2
    13   109   108    2
    14   108   107    1
    15   104   103    1
    16   104   106   am
    17   103   102    1
    18   107   106    1
    19   107   110    1
    20   101   100    2
    21   112   111    2
    22    81    79   am
    23    73    74    1
    24   102   100   am
    25   110   111    1
    26   100    99    1
    27   111   113   am
    28    74    77    1
    29    74    75    1
    30    97    95    1
    31    77    78    1
    32    79    80    2
    33    79    78    1
    34    94    95    1
    35    94    91    1
    36    99    98    1
    37    93    92    2
    38    92    98   am
    39    92    91    1
    40    95    96    1
    41    75    76    2
    42    75    82   am
    43    91    90    1
    44    90    84   am
    45    82    83    1
    46    84    83    1
    47    84    85    2
    48    83    86    1
    49     9     7   ar
    50     9    11   ar
    51    12    11    1
    52     7     6   ar
    53    11    10   ar
    54    86    87    1
    55    86    88    1
    56     6     5    1
    57     6     8   ar
    58    10     8   ar
    59    87    89    1
    60     5     2    1
    61    23    21    1
    62    22    21    1
    63    21    20    2
    64     2     1    1
    65     2     3    1
    66    20    19    1
    67    18    19    1
    68    18    17    1
    69     3     4    2
    70    72    70    1
    71    48    47    1
    72    17    14    1
    73    30    28    1
    74    14    13    1
    75    14    15    1
    76    70    69    1
    77    47    49    1
    78    47    46    1
    79    68    67    2
    80    63    62    2
    81    71    69    1
    82    66    69    1
    83    66    67    1
    84    66    65    1
    85    46    43    1
    86    15    16    2
    87    62    65   am
    88    62    61    1
    89    28    29    1
    90    28    25    1
    91    64    61    1
    92    41    40   ar
    93    41    39   ar
    94    40    38   ar
    95    61    60    1
    96    25    24    1
    97    25    26    1
    98    43    44    1
    99    43    42    1
   100    39    37   ar
   101    38    36   ar
   102    44    45    2
   103    57    59   ar
   104    57    55   ar
   105    26    31   am
   106    26    27    2
   107    37    36   ar
   108    31    32    1
   109    36    35    1
   110    54    55    1
   111    54    51    1
   112    53    52    2
   113    59    58   ar
   114    55    56   ar
   115    52    51    1
   116    35    32    1
   117    32    33    1
   118    51    50    1
   119    58    56   ar
   120    33    34    2
