@<TRIPOS>MOLECULE
tmp/2a1uA00.pdb
 206 199 0 0 0
SMALL
GASTEIGER

@<TRIPOS>ATOM
      1  N         22.3430   27.7880   42.0740 N.3   204  GLY204     -0.1210
      2  CA        22.3070   28.8850   41.1190 C.3   204  GLY204      0.1956
      3  C         23.6090   29.6590   41.1970 C.2   204  GLY204      0.2612
      4  O         24.6660   29.1100   41.5240 O.2   204  GLY204     -0.2717
      5  N         23.5790   30.9110   40.9640 N.am  205  ARG205     -0.1965
      6  CA        24.7590   31.7620   40.8530 C.3   205  ARG205      0.1729
      7  C         25.4940   31.9260   42.1940 C.2   205  ARG205      0.2616
      8  O         26.7000   32.2300   42.2210 O.2   205  ARG205     -0.2715
      9  CB        24.3260   33.1260   40.3320 C.3   205  ARG205      0.0348
     10  CG        25.4820   34.0610   39.9630 C.3   205  ARG205      0.0492
     11  CD        24.9820   35.4890   39.7220 C.3   205  ARG205      0.2205
     12  NE        23.9840   35.5660   38.6490 N.pl3 205  ARG205     -0.0865
     13  CZ        24.2760   35.5510   37.3420 C.cat 205  ARG205      0.5346
     14  NH1       25.5420   35.4500   36.9390 N.pl3 205  ARG205      0.1354
     15  NH2       23.3190   35.6390   36.4130 N.pl3 205  ARG205      0.1354
     16  N         24.7610   31.7090   43.2870 N.am  206  GLY206     -0.1955
     17  CA        25.3010   31.8530   44.6510 C.3   206  GLY206      0.1869
     18  C         26.4210   30.8770   44.9920 C.2   206  GLY206      0.2309
     19  O         27.1590   31.0750   45.9700 O.2   206  GLY206     -0.2863
     20  N         28.9610   30.3880   43.0950 N.3   208  LYS208     -0.1245
     21  CA        30.1850   31.1150   42.6310 C.3   208  LYS208      0.1561
     22  C         31.1930   30.3100   41.7900 C.2   208  LYS208      0.2260
     23  O         32.0270   30.8990   41.1010 O.2   208  LYS208     -0.2867
     24  CB        30.9480   31.7280   43.8100 C.3   208  LYS208      0.0271
     25  CG        30.0340   32.4070   44.7950 C.3   208  LYS208      0.0035
     26  CD        30.8120   33.0740   45.8980 C.3   208  LYS208      0.0206
     27  CE        29.9220   34.0800   46.6570 C.3   208  LYS208      0.1093
     28  NZ        30.5800   34.5350   47.9300 N.3   208  LYS208     -0.1314
     29  N         20.2460   26.4620   37.9330 N.3   230  SER230     -0.1202
     30  CA        19.6090   27.5750   37.2720 C.3   230  SER230      0.2020
     31  C         20.4170   27.8520   36.0170 C.2   230  SER230      0.2619
     32  O         21.5200   27.3190   35.8280 O.2   230  SER230     -0.2717
     33  CB        19.6250   28.8140   38.1520 C.3   230  SER230      0.2103
     34  OG        20.9500   29.3270   38.1820 O.3   230  SER230     -0.2182
     35  N         19.8700   28.7120   35.1780 N.am  231  ARG231     -0.1965
     36  CA        20.5660   29.1600   33.9900 C.3   231  ARG231      0.1729
     37  C         21.8680   29.8640   34.3500 C.2   231  ARG231      0.2616
     38  O         22.8740   29.7000   33.6570 O.2   231  ARG231     -0.2715
     39  CB        19.6720   30.1010   33.1900 C.3   231  ARG231      0.0348
     40  CG        20.1480   30.3290   31.7630 C.3   231  ARG231      0.0492
     41  CD        20.0540   31.7960   31.4470 C.3   231  ARG231      0.2205
     42  NE        20.2400   32.0540   30.0250 N.pl3 231  ARG231     -0.0865
     43  CZ        19.9730   33.2210   29.4550 C.cat 231  ARG231      0.5346
     44  NH1       19.5040   34.2260   30.1950 N.pl3 231  ARG231      0.1354
     45  NH2       20.1660   33.3830   28.1530 N.pl3 231  ARG231      0.1354
     46  N         21.8610   30.6570   35.4220 N.am  232  ALA232     -0.1977
     47  CA        23.0860   31.3610   35.8090 C.3   232  ALA232      0.1597
     48  C         24.2280   30.3730   36.0990 C.2   232  ALA232      0.2287
     49  O         25.3900   30.6300   35.7950 O.2   232  ALA232     -0.2864
     50  CB        22.8280   32.2790   36.9900 C.3   232  ALA232      0.0319
     51  N         19.8490   21.9630   33.8050 N.3   244  GLN244     -0.1231
     52  CA        19.0490   23.1720   33.9580 C.3   244  GLN244      0.1698
     53  C         17.5400   22.8850   34.2010 C.2   244  GLN244      0.2592
     54  O         16.9070   22.1060   33.4890 O.2   244  GLN244     -0.2718
     55  CB        19.2670   24.1560   32.7920 C.3   244  GLN244      0.0381
     56  CG        18.4610   25.4630   32.9100 C.3   244  GLN244      0.0905
     57  CD        18.8980   26.5630   31.9400 C.2   244  GLN244      0.2608
     58  OE1       19.8670   26.4260   31.1960 O.2   244  GLN244     -0.2717
     59  NE2       18.1870   27.6700   31.9670 N.am  244  GLN244     -0.0878
     60  N         17.0050   23.5040   35.2500 N.am  245  VAL245     -0.1966
     61  CA        15.5790   23.4240   35.6020 C.3   245  VAL245      0.1727
     62  C         14.9070   24.7460   35.2450 C.2   245  VAL245      0.2617
     63  O         15.4210   25.8160   35.5790 O.2   245  VAL245     -0.2715
     64  CB        15.3910   23.1160   37.1210 C.3   245  VAL245      0.0290
     65  CG1       13.9540   23.3140   37.5600 C.3   245  VAL245      0.0023
     66  CG2       15.8650   21.6920   37.4490 C.3   245  VAL245      0.0023
     67  N         13.7820   24.6620   34.5350 N.am  246  GLY246     -0.1940
     68  CA        12.9700   25.8330   34.2490 C.3   246  GLY246      0.2014
     69  C         12.2640   25.7930   32.9060 C.2   246  GLY246      0.2639
     70  O         12.2080   24.7390   32.2520 O.2   246  GLY246     -0.2714
     71  N         11.7270   26.9480   32.4910 N.am  247  GLN247     -0.1963
     72  CA        10.9110   27.0470   31.2690 C.3   247  GLN247      0.1733
     73  C         11.6440   26.4640   30.0600 C.2   247  GLN247      0.2617
     74  O         11.0400   25.7930   29.2180 O.2   247  GLN247     -0.2715
     75  CB        10.5660   28.5090   30.9850 C.3   247  GLN247      0.0408
     76  CG         9.6400   28.7570   29.7810 C.3   247  GLN247      0.0908
     77  CD         9.3480   30.2460   29.5830 C.2   247  GLN247      0.2608
     78  OE1       10.1230   31.1190   30.0240 O.2   247  GLN247     -0.2717
     79  NE2        8.2260   30.5430   28.9720 N.am  247  GLN247     -0.0878
     80  N         12.9390   26.7420   29.9850 N.am  248  THR248     -0.1937
     81  CA        13.7640   26.3240   28.8580 C.3   248  THR248      0.2028
     82  C         14.5590   25.0510   29.1580 C.2   248  THR248      0.2642
     83  O         15.1630   24.4930   28.2570 O.2   248  THR248     -0.2714
     84  CB        14.7440   27.4270   28.4320 C.3   248  THR248      0.1808
     85  OG1       15.9260   27.3680   29.2370 O.3   248  THR248     -0.2208
     86  CG2       14.1120   28.7650   28.5990 C.3   248  THR248      0.0379
     87  N         14.5420   24.6020   30.4150 N.am  249  GLY249     -0.1954
     88  CA        15.2130   23.3700   30.8050 C.3   249  GLY249      0.1869
     89  C         14.2460   22.2350   31.1100 C.2   249  GLY249      0.2309
     90  O         13.2710   22.0250   30.3890 O.2   249  GLY249     -0.2863
     91  N         21.0090   29.0920   46.6740 N.3   261  GLY261     -0.1210
     92  CA        21.5720   30.2400   45.9800 C.3   261  GLY261      0.1956
     93  C         20.9400   30.4690   44.6290 C.2   261  GLY261      0.2612
     94  O         21.6520   30.7480   43.6460 O.2   261  GLY261     -0.2717
     95  N         19.6050   30.3370   44.5880 N.am  262  ILE262     -0.1965
     96  CA        18.7910   30.6110   43.4040 C.3   262  ILE262      0.1727
     97  C         17.7460   31.6500   43.7900 C.2   262  ILE262      0.2617
     98  O         16.9700   31.4060   44.7240 O.2   262  ILE262     -0.2715
     99  CB        18.0530   29.3300   42.9190 C.3   262  ILE262      0.0290
    100  CG1       19.0480   28.3060   42.3480 C.3   262  ILE262      0.0022
    101  CG2       16.9580   29.6910   41.9160 C.3   262  ILE262      0.0023
    102  CD1       18.5160   26.8680   42.2380 C.3   262  ILE262      0.0001
    103  N         17.6990   32.7900   43.0800 N.am  263  SER263     -0.1936
    104  CA        16.7650   33.8960   43.4300 C.3   263  SER263      0.2055
    105  C         15.2870   33.5380   43.2810 C.2   263  SER263      0.2644
    106  O         14.4460   34.0250   44.0440 O.2   263  SER263     -0.2714
    107  CB        17.0610   35.1630   42.6320 C.3   263  SER263      0.2130
    108  OG        16.8440   34.9440   41.2420 O.3   263  SER263     -0.2179
    109  N         14.9750   32.6600   42.3330 N.am  264  GLY264     -0.1939
    110  CA        13.5920   32.3180   42.0280 C.3   264  GLY264      0.2014
    111  C         13.0110   33.1800   40.9270 C.2   264  GLY264      0.2638
    112  O         11.9300   33.6800   41.0590 O.2   264  GLY264     -0.2714
    113  N         13.7350   33.3730   39.8400 N.am  265  ALA265     -0.1977
    114  CA        13.2090   34.1050   38.6990 C.3   265  ALA265      0.1597
    115  C         12.0600   33.3170   38.0730 C.2   265  ALA265      0.2287
    116  O         12.0410   32.0940   38.1550 O.2   265  ALA265     -0.2864
    117  CB        14.3200   34.3460   37.6740 C.3   265  ALA265      0.0319
    118  N         11.4180   32.2570   35.2630 N.3   267  GLN267     -0.1231
    119  CA        11.8460   31.2210   34.3260 C.3   267  GLN267      0.1698
    120  C         12.3720   29.9780   35.0460 C.2   267  GLN267      0.2592
    121  O         12.2480   28.8660   34.5470 O.2   267  GLN267     -0.2718
    122  CB        12.8820   31.7800   33.3810 C.3   267  GLN267      0.0381
    123  CG        12.3350   32.8230   32.3970 C.3   267  GLN267      0.0905
    124  CD        12.1420   34.2110   33.0200 C.2   267  GLN267      0.2608
    125  OE1       11.2140   34.9420   32.6430 O.2   267  GLN267     -0.2717
    126  NE2       13.0180   34.5860   33.9640 N.am  267  GLN267     -0.0878
    127  N         12.9410   30.1640   36.2270 N.am  268  HIS268     -0.1976
    128  CA        13.2830   29.0170   37.0530 C.3   268  HIS268      0.1656
    129  C         12.0360   28.4040   37.7090 C.2   268  HIS268      0.2291
    130  O         11.9060   27.1640   37.7310 O.2   268  HIS268     -0.2864
    131  CB        14.3460   29.3580   38.1050 C.3   268  HIS268      0.0771
    132  CG        14.8770   28.1540   38.8110 C.ar  268  HIS268      0.0820
    133  ND1       15.9850   27.4620   38.3720 N.ar  268  HIS268     -0.2267
    134  CD2       14.4160   27.4830   39.8940 C.ar  268  HIS268      0.1154
    135  CE1       16.1970   26.4290   39.1710 C.ar  268  HIS268      0.1986
    136  NE2       15.2590   26.4200   40.1050 N.ar  268  HIS268     -0.2212
    137  N         17.3890   27.9450   50.5080 N.3   281  ILE281     -0.1231
    138  CA        18.5690   28.3730   51.2360 C.3   281  ILE281      0.1692
    139  C         19.1880   29.5490   50.4680 C.2   281  ILE281      0.2592
    140  O         19.6880   29.3940   49.3340 O.2   281  ILE281     -0.2718
    141  CB        19.5820   27.2130   51.3820 C.3   281  ILE281      0.0266
    142  CG1       18.8820   25.9910   52.0180 C.3   281  ILE281      0.0019
    143  CG2       20.8240   27.6830   52.1500 C.3   281  ILE281      0.0020
    144  CD1       19.6950   24.6650   52.0390 C.3   281  ILE281      0.0001
    145  N         19.1160   30.7280   51.0800 N.am  282  ASN282     -0.1960
    146  CA        19.3910   31.9770   50.3800 C.3   282  ASN282      0.1819
    147  C         19.6450   33.0600   51.4010 C.2   282  ASN282      0.2621
    148  O         18.9300   33.1430   52.4120 O.2   282  ASN282     -0.2715
    149  CB        18.2130   32.3670   49.4690 C.3   282  ASN282      0.1195
    150  CG        18.5980   33.3970   48.3860 C.2   282  ASN282      0.2630
    151  OD1       19.0350   34.5290   48.6880 O.2   282  ASN282     -0.2716
    152  ND2       18.4330   33.0040   47.1100 N.am  282  ASN282     -0.0877
    153  N         20.6520   33.8860   51.1390 N.am  283  LYS283     -0.1963
    154  CA        21.0220   34.9910   52.0520 C.3   283  LYS283      0.1728
    155  C         20.1630   36.2680   51.8850 C.2   283  LYS283      0.2616
    156  O         20.2110   37.1540   52.7130 O.2   283  LYS283     -0.2715
    157  CB        22.5280   35.2870   51.9370 C.3   283  LYS283      0.0311
    158  CG        22.9770   36.0170   50.6780 C.3   283  LYS283      0.0038
    159  CD        24.4510   36.4130   50.8460 C.3   283  LYS283      0.0206
    160  CE        25.0320   37.1540   49.6400 C.3   283  LYS283      0.1093
    161  NZ        24.3730   38.4690   49.5200 N.3   283  LYS283     -0.1314
    162  N         19.3480   36.3280   50.8310 N.am  284  ASP284     -0.1971
    163  CA        18.5360   37.5140   50.5440 C.3   284  ASP284      0.1709
    164  C         17.0710   37.2810   50.9280 C.2   284  ASP284      0.2293
    165  O         16.3790   36.5500   50.2370 O.2   284  ASP284     -0.2864
    166  CB        18.6170   37.8350   49.0420 C.3   284  ASP284      0.1436
    167  CG        17.8070   39.0640   48.6470 C.2   284  ASP284      0.3671
    168  OD1       17.3140   39.7900   49.5510 O.co2 284  ASP284     -0.2456
    169  OD2       17.6630   39.2900   47.4120 O.co2 284  ASP284     -0.2456
    170  N         14.4600   37.5180   48.1500 N.3   287  ALA287     -0.1245
    171  CA        14.5160   36.6220   46.9890 C.3   287  ALA287      0.1562
    172  C         13.1180   36.1130   46.6940 C.2   287  ALA287      0.2260
    173  O         12.4560   35.6030   47.5840 O.2   287  ALA287     -0.2867
    174  CB        15.4360   35.4520   47.2430 C.3   287  ALA287      0.0290
    175  N         20.3210   32.5920   55.1730 N.3   299  ALA299     -0.1231
    176  CA        21.6730   32.3710   55.6990 C.3   299  ALA299      0.1694
    177  C         22.5940   32.1020   54.5460 C.2   299  ALA299      0.2592
    178  O         22.1550   31.9650   53.3880 O.2   299  ALA299     -0.2718
    179  CB        21.6850   31.1900   56.6420 C.3   299  ALA299      0.0304
    180  N         23.8790   32.0280   54.8670 N.am  300  ASP300     -0.1960
    181  CA        24.9330   31.7450   53.9050 C.3   300  ASP300      0.1840
    182  C         24.9090   30.2610   53.5530 C.2   300  ASP300      0.2622
    183  O         25.0780   29.4150   54.4240 O.2   300  ASP300     -0.2715
    184  CB        26.2760   32.1120   54.5410 C.3   300  ASP300      0.1450
    185  CG        27.4070   32.1750   53.5450 C.2   300  ASP300      0.3671
    186  OD1       27.2390   31.7170   52.3890 O.co2 300  ASP300     -0.2456
    187  OD2       28.4800   32.6850   53.9380 O.co2 300  ASP300     -0.2456
    188  N         24.6960   29.9490   52.2710 N.am  301  LEU301     -0.1963
    189  CA        24.6990   28.5580   51.8080 C.3   301  LEU301      0.1728
    190  C         25.9970   27.8170   52.1190 C.2   301  LEU301      0.2616
    191  O         25.9760   26.5940   52.2730 O.2   301  LEU301     -0.2715
    192  CB        24.3870   28.4790   50.3120 C.3   301  LEU301      0.0311
    193  CG        25.4450   28.9600   49.3060 C.3   301  LEU301      0.0022
    194  CD1       26.5120   27.8650   48.9710 C.3   301  LEU301      0.0001
    195  CD2       24.7410   29.4520   48.0240 C.3   301  LEU301      0.0001
    196  N         27.1210   28.5480   52.2120 N.am  302  PHE302     -0.1974
    197  CA        28.4230   27.9330   52.5160 C.3   302  PHE302      0.1639
    198  C         28.5160   27.4090   53.9590 C.2   302  PHE302      0.2290
    199  O         29.3290   26.5390   54.2770 O.2   302  PHE302     -0.2864
    200  CB        29.5770   28.8790   52.1330 C.3   302  PHE302      0.0560
    201  CG        29.7130   29.0480   50.6440 C.ar  302  PHE302     -0.0200
    202  CD1       30.1740   27.9890   49.8530 C.ar  302  PHE302     -0.0042
    203  CD2       29.3150   30.2260   50.0230 C.ar  302  PHE302     -0.0042
    204  CE1       30.2460   28.1040   48.4620 C.ar  302  PHE302     -0.0003
    205  CE2       29.3810   30.3600   48.6290 C.ar  302  PHE302     -0.0003
    206  CZ        29.8480   29.2900   47.8410 C.ar  302  PHE302     -0.0000
@<TRIPOS>BOND
     1    45    43    1
     2    83    82    2
     3    84    86    1
     4    84    81    1
     5    84    85    1
     6    81    82    1
     7    81    80    1
     8    79    77   am
     9    82    87   am
    10    74    73    2
    11    43    42    2
    12    43    44    1
    13    77    76    1
    14    77    78    2
    15    76    75    1
    16    80    73   am
    17    42    41    1
    18    73    72    1
    19    90    89    2
    20    87    88    1
    21    88    89    1
    22    75    72    1
    23    58    57    2
    24    72    71    1
    25    41    40    1
    26    40    39    1
    27    57    59   am
    28    57    56    1
    29    70    69    2
    30   123   124    1
    31   123   122    1
    32    71    69   am
    33   125   124    2
    34    55    56    1
    35    55    52    1
    36    69    68    1
    37   124   126   am
    38    39    36    1
    39   122   119    1
    40    54    53    2
    41    38    37    2
    42    51    52    1
    43    52    53    1
    44    36    37    1
    45    36    35    1
    46    53    60   am
    47    68    67    1
    48   119   120    1
    49   119   118    1
    50    37    46   am
    51    67    62   am
    52   121   120    2
    53   120   127   am
    54    35    31   am
    55    62    63    2
    56    62    61    1
    57    60    61    1
    58    46    47    1
    59    61    64    1
    60    49    48    2
    61    47    48    1
    62    47    50    1
    63    32    31    2
    64    31    30    1
    65   127   128    1
    66    15    13    1
    67    14    13    1
    68   128   129    1
    69   128   131    1
    70    64    66    1
    71    64    65    1
    72    30    29    1
    73    30    33    1
    74    13    12    2
    75   117   114    1
    76   129   130    2
    77   115   116    2
    78   115   114    1
    79   131   132    1
    80    33    34    1
    81   133   132   ar
    82   133   135   ar
    83    12    11    1
    84   114   113    1
    85   132   134   ar
    86   135   136   ar
    87    11    10    1
    88   113   111   am
    89   134   136   ar
    90    10     9    1
    91     9     6    1
    92     6     5    1
    93     6     7    1
    94   111   112    2
    95   111   110    1
    96     5     3   am
    97    23    22    2
    98     2     3    1
    99     2     1    1
   100     3     4    2
   101   108   107    1
   102    22    21    1
   103   101    99    1
   104   110   109    1
   105     7     8    2
   106     7    16   am
   107   102   100    1
   108   109   105   am
   109   100    99    1
   110    21    20    1
   111    21    24    1
   112   107   104    1
   113    99    96    1
   114   103   104    1
   115   103    97   am
   116   105   104    1
   117   105   106    2
   118    16    17    1
   119    96    97    1
   120    96    95    1
   121    94    93    2
   122    97    98    2
   123    24    25    1
   124    95    93   am
   125    93    92    1
   126    17    18    1
   127    25    26    1
   128    18    19    2
   129    26    27    1
   130    92    91    1
   131    27    28    1
   132   172   171    1
   133   172   173    2
   134   171   174    1
   135   171   170    1
   136   152   150   am
   137   169   167   ar
   138   206   204   ar
   139   206   205   ar
   140   195   193    1
   141   150   151    2
   142   150   149    1
   143   204   202   ar
   144   205   203   ar
   145   167   166    1
   146   167   168   ar
   147   194   193    1
   148   166   163    1
   149   193   192    1
   150   140   139    2
   151   149   146    1
   152   161   160    1
   153   160   159    1
   154   202   201   ar
   155   203   201   ar
   156   165   164    2
   157   192   189    1
   158   146   145    1
   159   146   147    1
   160   139   145   am
   161   139   138    1
   162   137   138    1
   163   163   162    1
   164   163   164    1
   165   201   200    1
   166   158   159    1
   167   158   157    1
   168   162   155   am
   169   153   147   am
   170   153   154    1
   171   138   141    1
   172   141   142    1
   173   141   143    1
   174   147   148    2
   175   189   190    1
   176   189   188    1
   177   155   154    1
   178   155   156    2
   179   157   154    1
   180   142   144    1
   181   190   196   am
   182   190   191    2
   183   200   197    1
   184   196   197    1
   185   188   182   am
   186   186   185   ar
   187   197   198    1
   188   178   177    2
   189   185   187   ar
   190   185   184    1
   191   182   181    1
   192   182   183    2
   193   181   184    1
   194   181   180    1
   195   198   199    2
   196   177   180   am
   197   177   176    1
   198   175   176    1
   199   176   179    1
