@<TRIPOS>MOLECULE
tmp/2a1xA00.pdb
 125 119 0 0 0
SMALL
GASTEIGER

@<TRIPOS>ATOM
      1  N         12.0320   25.5130   45.1330 N.3    71  LYS71      -0.1245
      2  CA        13.1480   24.7160   44.6650 C.3    71  LYS71       0.1561
      3  C         14.2830   24.7970   45.6890 C.2    71  LYS71       0.2260
      4  O         14.4550   25.8150   46.3810 O.2    71  LYS71      -0.2867
      5  CB        13.6210   25.2350   43.3000 C.3    71  LYS71       0.0271
      6  CG        14.8410   24.5270   42.7070 C.3    71  LYS71       0.0035
      7  CD        15.2670   25.0800   41.3330 C.3    71  LYS71       0.0206
      8  CE        14.1090   25.0440   40.2970 C.3    71  LYS71       0.1093
      9  NZ        14.5440   25.2840   38.8800 N.3    71  LYS71      -0.1314
     10  N         18.9820   19.1700   41.9920 N.3   108  MET108     -0.1245
     11  CA        17.7620   19.9690   42.2610 C.3   108  MET108      0.1570
     12  C         16.6410   19.1460   42.8890 C.2   108  MET108      0.2261
     13  O         16.4410   18.0100   42.5000 O.2   108  MET108     -0.2867
     14  CB        17.1280   20.4970   40.9710 C.3   108  MET108      0.0387
     15  CG        17.9350   21.3620   40.0500 C.3   108  MET108      0.0595
     16  SD        16.8090   21.9570   38.7520 S.3   108  MET108     -0.1393
     17  CE        16.4410   20.4740   37.7980 C.3   108  MET108      0.0692
     18  N         12.5280   20.0570   43.0110 N.3   110  ILE110     -0.1245
     19  CA        11.6450   21.0830   42.4570 C.3   110  ILE110      0.1561
     20  C         10.2500   20.9860   43.0580 C.2   110  ILE110      0.2260
     21  O          9.6320   19.9270   43.0340 O.2   110  ILE110     -0.2867
     22  CB        11.5570   20.9830   40.9210 C.3   110  ILE110      0.0252
     23  CG1       12.9540   20.8160   40.2880 C.3   110  ILE110      0.0019
     24  CG2       10.9460   22.2640   40.3570 C.3   110  ILE110      0.0019
     25  CD1       13.0320   19.7380   39.2180 C.3   110  ILE110      0.0001
     26  N          7.0140   22.6900   42.4940 N.3   112  LYS112     -0.1245
     27  CA         6.3410   23.6200   41.5760 C.3   112  LYS112      0.1561
     28  C          4.9940   24.0990   42.1240 C.2   112  LYS112      0.2260
     29  O          4.1160   23.2880   42.3910 O.2   112  LYS112     -0.2867
     30  CB         6.1450   22.9720   40.2000 C.3   112  LYS112      0.0271
     31  CG         5.6930   23.9240   39.0830 C.3   112  LYS112      0.0035
     32  CD         5.4150   23.1320   37.8020 C.3   112  LYS112      0.0206
     33  CE         5.4430   24.0060   36.5420 C.3   112  LYS112      0.1093
     34  NZ         4.6270   25.2480   36.6610 N.3   112  LYS112     -0.1314
     35  N         13.5130   25.5760   27.2230 N.3   118  HIS118     -0.1241
     36  CA        14.9540   25.7160   27.3080 C.3   118  HIS118      0.1621
     37  C         15.7440   24.4270   27.1720 C.2   118  HIS118      0.2264
     38  O         15.2010   23.3280   27.0530 O.2   118  HIS118     -0.2867
     39  CB        15.3020   26.3530   28.6490 C.3   118  HIS118      0.0745
     40  CG        15.0930   25.4500   29.8160 C.ar  118  HIS118      0.0817
     41  ND1       13.8770   25.3200   30.4410 N.ar  118  HIS118     -0.2268
     42  CD2       15.9500   24.6530   30.4940 C.ar  118  HIS118      0.1154
     43  CE1       13.9860   24.4780   31.4480 C.ar  118  HIS118      0.1986
     44  NE2       15.2370   24.0580   31.5050 N.ar  118  HIS118     -0.2212
     45  N         18.8980   22.5870   29.1940 N.3   120  ASP120     -0.1239
     46  CA        19.7250   22.6180   30.4120 C.3   120  ASP120      0.1674
     47  C         21.1850   22.9980   30.1670 C.2   120  ASP120      0.2266
     48  O         21.7950   23.6110   31.0290 O.2   120  ASP120     -0.2867
     49  CB        19.6670   21.2640   31.1430 C.3   120  ASP120      0.1410
     50  CG        18.2850   20.9520   31.6610 C.2   120  ASP120      0.3668
     51  OD1       17.4690   21.8980   31.7660 O.co2 120  ASP120     -0.2456
     52  OD2       18.0040   19.7650   31.9510 O.co2 120  ASP120     -0.2456
     53  N         15.5980   12.6590   36.2370 N.3   136  TRP136     -0.1241
     54  CA        14.5390   13.4700   36.8180 C.3   136  TRP136      0.1605
     55  C         13.4460   12.5250   37.2720 C.2   136  TRP136      0.2264
     56  O         12.8600   11.8220   36.4540 O.2   136  TRP136     -0.2867
     57  CB        14.0370   14.4100   35.7360 C.3   136  TRP136      0.0550
     58  CG        13.1070   15.5070   36.1010 C.ar  136  TRP136      0.0003
     59  CD1       13.4150   16.8430   36.2030 C.ar  136  TRP136      0.0946
     60  CD2       11.6950   15.4120   36.2560 C.ar  136  TRP136      0.0152
     61  NE1       12.2810   17.5730   36.4480 N.ar  136  TRP136     -0.2442
     62  CE2       11.2100   16.7210   36.4980 C.ar  136  TRP136      0.0810
     63  CE3       10.7870   14.3450   36.2500 C.ar  136  TRP136      0.0012
     64  CZ2        9.8650   16.9860   36.7530 C.ar  136  TRP136      0.0191
     65  CZ3        9.4340   14.6130   36.4950 C.ar  136  TRP136      0.0001
     66  CH2        8.9940   15.9190   36.7550 C.ar  136  TRP136      0.0015
     67  N          6.5130   17.6060   32.6840 N.3   149  LEU149     -0.1245
     68  CA         7.4980   18.0880   31.7380 C.3   149  LEU149      0.1561
     69  C          6.9280   17.9680   30.3290 C.2   149  LEU149      0.2260
     70  O          6.2400   16.9810   30.0050 O.2   149  LEU149     -0.2867
     71  CB         8.8030   17.2770   31.8370 C.3   149  LEU149      0.0270
     72  CG         9.7820   17.6000   32.9700 C.3   149  LEU149      0.0019
     73  CD1       10.9250   16.6150   32.9430 C.3   149  LEU149      0.0001
     74  CD2       10.3270   19.0260   32.9090 C.3   149  LEU149      0.0001
     75  N         15.9820   29.9230   31.0160 N.3   166  HIS166     -0.1241
     76  CA        14.5070   29.9830   30.9480 C.3   166  HIS166      0.1621
     77  C         14.0560   30.8130   29.7430 C.2   166  HIS166      0.2264
     78  O         13.3090   31.7860   29.8940 O.2   166  HIS166     -0.2867
     79  CB        13.9490   30.5990   32.2340 C.3   166  HIS166      0.0745
     80  CG        13.8360   29.6420   33.4150 C.ar  166  HIS166      0.0817
     81  ND1       13.1450   29.9280   34.5890 N.ar  166  HIS166     -0.2268
     82  CD2       14.3770   28.3630   33.4850 C.ar  166  HIS166      0.1154
     83  CE1       13.2550   28.8450   35.3560 C.ar  166  HIS166      0.1986
     84  NE2       13.9490   27.9350   34.7550 N.ar  166  HIS166     -0.2212
     85  N         12.7340   21.5410   26.4010 N.3   195  HIS195     -0.1226
     86  CA        11.6970   21.1170   27.3280 C.3   195  HIS195      0.1752
     87  C         11.2920   22.2920   28.2370 C.2   195  HIS195      0.2597
     88  O         11.9180   23.3900   28.2040 O.2   195  HIS195     -0.2718
     89  CB        12.1970   19.9300   28.1710 C.3   195  HIS195      0.0759
     90  CG        13.3330   20.2790   29.0720 C.ar  195  HIS195      0.0818
     91  ND1       14.6050   20.5240   28.5980 N.ar  195  HIS195     -0.2268
     92  CD2       13.3800   20.4980   30.4060 C.ar  195  HIS195      0.1154
     93  CE1       15.3900   20.8530   29.6070 C.ar  195  HIS195      0.1986
     94  NE2       14.6720   20.8490   30.7140 N.ar  195  HIS195     -0.2212
     95  N         10.2420   22.0410   29.0210 N.am  196  GLY196     -0.1942
     96  CA         9.6550   22.9930   29.9530 C.3   196  GLY196      0.2014
     97  C          8.6030   22.2930   30.8010 C.2   196  GLY196      0.2639
     98  O          8.2640   21.1530   30.5550 O.2   196  GLY196     -0.2714
     99  N          8.0950   22.9640   31.8220 N.am  197  SER197     -0.1949
    100  CA         7.0220   22.4290   32.6490 C.3   197  SER197      0.1924
    101  C          5.7400   23.1470   32.3160 C.2   197  SER197      0.2314
    102  O          5.7270   24.3660   32.1540 O.2   197  SER197     -0.2863
    103  CB         7.3260   22.6330   34.1190 C.3   197  SER197      0.2116
    104  OG         8.3740   21.7910   34.5070 O.3   197  SER197     -0.2180
    105  N          4.0220   20.5860   43.3620 N.3   206  ARG206     -0.1245
    106  CA         4.3440   19.3860   42.6010 C.3   206  ARG206      0.1563
    107  C          5.8620   19.1110   42.6630 C.2   206  ARG206      0.2260
    108  O          6.6780   19.8890   42.1460 O.2   206  ARG206     -0.2867
    109  CB         3.8490   19.5850   41.1580 C.3   206  ARG206      0.0307
    110  CG         3.8240   18.3540   40.3000 C.3   206  ARG206      0.0489
    111  CD         5.1870   18.0650   39.7350 C.3   206  ARG206      0.2205
    112  NE         5.5580   18.9400   38.6280 N.pl3 206  ARG206     -0.0865
    113  CZ         6.7870   19.4170   38.4170 C.cat 206  ARG206      0.5346
    114  NH1        7.7790   19.1540   39.2640 N.pl3 206  ARG206      0.1354
    115  NH2        7.0300   20.1870   37.3590 N.pl3 206  ARG206      0.1354
    116  N         21.8590   16.1310   37.2290 N.3   212  HIS212     -0.1241
    117  CA        22.5650   16.0110   35.9710 C.3   212  HIS212      0.1621
    118  C         23.8980   15.3950   36.2320 C.2   212  HIS212      0.2264
    119  O         24.6710   15.9060   37.0400 O.2   212  HIS212     -0.2867
    120  CB        22.8150   17.3780   35.3490 C.3   212  HIS212      0.0745
    121  CG        21.5770   18.0740   34.9100 C.ar  212  HIS212      0.0817
    122  ND1       20.8060   18.8250   35.7690 N.ar  212  HIS212     -0.2268
    123  CD2       20.9780   18.1410   33.7010 C.ar  212  HIS212      0.1154
    124  CE1       19.7880   19.3350   35.1050 C.ar  212  HIS212      0.1986
    125  NE2       19.8650   18.9280   33.8480 N.ar  212  HIS212     -0.2212
@<TRIPOS>BOND
     1    85    86    1
     2    38    37    2
     3    37    36    1
     4    35    36    1
     5    36    39    1
     6    86    89    1
     7    86    87    1
     8    89    90    1
     9    88    87    2
    10    87    95   am
    11    91    90   ar
    12    91    93   ar
    13    39    40    1
    14    95    96    1
    15    90    92   ar
    16    45    46    1
    17    93    94   ar
    18    77    78    2
    19    77    76    1
    20    40    41   ar
    21    40    42   ar
    22    96    97    1
    23    70    69    2
    24    47    46    1
    25    47    48    2
    26    69    68    1
    27    92    94   ar
    28    46    49    1
    29    41    43   ar
    30    42    44   ar
    31    98    97    2
    32    97    99   am
    33    76    75    1
    34    76    79    1
    35    49    50    1
    36    43    44   ar
    37    50    51   ar
    38    50    52   ar
    39    68    71    1
    40    68    67    1
    41    99   100    1
    42    71    72    1
    43   102   101    2
    44    79    80    1
    45   101   100    1
    46   100   103    1
    47    74    72    1
    48    73    72    1
    49    80    82   ar
    50    80    81   ar
    51    82    84   ar
    52   123   125   ar
    53   123   121   ar
    54   125   124   ar
    55   103   104    1
    56    81    83   ar
    57    84    83   ar
    58   121   120    1
    59   121   122   ar
    60   124   122   ar
    61   120   117    1
    62    57    58    1
    63    57    54    1
    64   117   118    1
    65   117   116    1
    66    58    59   ar
    67    58    60   ar
    68    59    61   ar
    69   118   119    2
    70    53    54    1
    71    63    60   ar
    72    63    65   ar
    73    60    62   ar
    74    61    62   ar
    75    56    55    2
    76    65    66   ar
    77    62    64   ar
    78    33    34    1
    79    33    32    1
    80    64    66   ar
    81    54    55    1
    82   115   113    1
    83    17    16    1
    84    32    31    1
    85   113   112    2
    86   113   114    1
    87   112   111    1
    88    16    15    1
    89     9     8    1
    90    31    30    1
    91    25    23    1
    92   111   110    1
    93    15    14    1
    94    30    27    1
    95    23    22    1
    96     8     7    1
    97   110   109    1
    98    24    22    1
    99    22    19    1
   100    14    11    1
   101   109   106    1
   102     7     6    1
   103    27    28    1
   104    27    26    1
   105    10    11    1
   106    28    29    2
   107   108   107    2
   108    11    12    1
   109    19    18    1
   110    19    20    1
   111    13    12    2
   112   106   107    1
   113   106   105    1
   114     6     5    1
   115    21    20    2
   116     5     2    1
   117     2     1    1
   118     2     3    1
   119     3     4    2
