@<TRIPOS>MOLECULE
tmp/2a1yA00.pdb
 190 181 0 0 0
SMALL
GASTEIGER

@<TRIPOS>ATOM
      1  N        -32.8120  -22.5860    6.7150 N.3    43  ALA43      -0.1231
      2  CA       -33.9980  -21.8220    6.3700 C.3    43  ALA43       0.1694
      3  C        -33.8820  -20.4470    6.9500 C.2    43  ALA43       0.2592
      4  O        -33.4400  -20.2630    8.1280 O.2    43  ALA43      -0.2718
      5  CB       -35.2500  -22.4980    6.9350 C.3    43  ALA43       0.0304
      6  N        -34.3020  -19.4660    6.1390 N.am   44  ASN44      -0.1960
      7  CA       -34.2960  -18.0840    6.6040 C.3    44  ASN44       0.1819
      8  C        -35.5290  -17.8290    7.4950 C.2    44  ASN44       0.2618
      9  O        -36.3790  -17.0220    7.1600 O.2    44  ASN44      -0.2715
     10  CB       -34.1820  -17.0990    5.4540 C.3    44  ASN44       0.1195
     11  CG       -35.3400  -17.1890    4.4720 C.2    44  ASN44       0.2630
     12  OD1      -35.9150  -18.2660    4.2490 O.2    44  ASN44      -0.2716
     13  ND2      -35.6980  -16.0630    3.8890 N.am   44  ASN44      -0.0877
     14  N        -35.5850  -18.5400    8.6100 N.am   45  MET45      -0.2030
     15  CA       -36.6920  -18.5090    9.5780 C.3    45  MET45       0.1291
     16  C        -36.1310  -18.2460   10.9770 C.3    45  MET45       0.2036
     17  O        -34.9770  -18.7230   11.3450 O.3    45  MET45      -0.2185
     18  CB       -37.3700  -19.8760    9.6960 C.3    45  MET45       0.0360
     19  CG       -38.1530  -20.3750    8.5210 C.3    45  MET45       0.0594
     20  SD       -38.4780  -22.1870    8.7510 S.3    45  MET45      -0.1393
     21  CE       -36.8630  -22.9070    8.9330 C.3    45  MET45       0.0692
     22  N        -38.7460  -13.1160    0.0690 N.3   118  ASP118     -0.1239
     23  CA       -39.2540  -14.3960    0.5040 C.3   118  ASP118      0.1674
     24  C        -40.7450  -14.3670    0.8290 C.2   118  ASP118      0.2266
     25  O        -41.0870  -14.0570    1.9370 O.2   118  ASP118     -0.2867
     26  CB       -38.4640  -14.8650    1.7350 C.3   118  ASP118      0.1410
     27  CG       -38.4680  -16.3940    1.8600 C.2   118  ASP118      0.3668
     28  OD1      -37.5170  -17.0160    1.3970 O.co2 118  ASP118     -0.2456
     29  OD2      -39.4580  -16.9900    2.3690 O.co2 118  ASP118     -0.2456
     30  N        -44.4920  -16.6160    0.6760 N.3   120  ALA120     -0.1245
     31  CA       -45.2100  -17.9250    0.4820 C.3   120  ALA120      0.1562
     32  C        -45.5680  -18.2040   -0.9910 C.2   120  ALA120      0.2260
     33  O        -45.1560  -19.2480   -1.5720 O.2   120  ALA120     -0.2867
     34  CB       -46.4190  -18.0190    1.3450 C.3   120  ALA120      0.0290
     35  N        -41.2080  -17.7500   -2.8460 N.3   147  ASN147     -0.1240
     36  CA       -41.0450  -19.1080   -3.3320 C.3   147  ASN147      0.1653
     37  C        -41.9150  -19.4580   -4.5300 C.2   147  ASN147      0.2266
     38  O        -43.0580  -18.9870   -4.6040 O.2   147  ASN147     -0.2867
     39  CB       -41.3640  -20.0580   -2.1880 C.3   147  ASN147      0.1155
     40  CG       -40.1540  -20.3700   -1.3760 C.2   147  ASN147      0.2627
     41  OD1      -39.2880  -19.4790   -1.1260 O.2   147  ASN147     -0.2716
     42  ND2      -40.0100  -21.6470   -0.9830 N.am  147  ASN147     -0.0877
     43  N        -36.1090  -19.3770   -5.5300 N.3   166  LYS166     -0.1245
     44  CA       -36.2860  -20.3800   -4.4950 C.3   166  LYS166      0.1561
     45  C        -37.4690  -21.2900   -4.7450 C.2   166  LYS166      0.2260
     46  O        -38.6060  -20.8420   -4.6920 O.2   166  LYS166     -0.2867
     47  CB       -36.3890  -19.7360   -3.1160 C.3   166  LYS166      0.0271
     48  CG       -36.1930  -20.7750   -2.0190 C.3   166  LYS166      0.0035
     49  CD       -35.3830  -20.1760   -0.8580 C.3   166  LYS166      0.0206
     50  CE       -36.1070  -19.0470   -0.1790 C.3   166  LYS166      0.1093
     51  NZ       -37.3910  -19.4760    0.6250 N.3   166  LYS166     -0.1314
     52  N        -40.1060  -24.3570   -4.0210 N.3   168  GLY168     -0.1225
     53  CA       -40.7950  -25.1710   -2.9920 C.3   168  GLY168      0.1811
     54  C        -42.0430  -24.4760   -2.4940 C.2   168  GLY168      0.2280
     55  O        -41.9480  -23.3590   -1.9620 O.2   168  GLY168     -0.2866
     56  N        -44.9580  -25.4760    0.0860 N.3   170  GLY170     -0.1210
     57  CA       -45.4410  -26.4770    1.0170 C.3   170  GLY170      0.1940
     58  C        -44.7580  -27.8240    1.2290 C.2   170  GLY170      0.2454
     59  O        -45.3550  -28.6360    1.8720 O.2   170  GLY170     -0.2732
     60  N        -43.4960  -28.0630    0.7830 N.am  171  PRO171     -0.2717
     61  CA       -42.9780  -29.3270    1.2520 C.3   171  PRO171      0.1536
     62  C        -42.3480  -29.2760    2.7050 C.2   171  PRO171      0.2599
     63  O        -41.8610  -30.3140    3.1720 O.2   171  PRO171     -0.2715
     64  CB       -41.8800  -29.6250    0.2300 C.3   171  PRO171      0.0310
     65  CG       -41.3250  -28.3050    0.0110 C.3   171  PRO171      0.0237
     66  CD       -42.4560  -27.3440    0.0390 C.3   171  PRO171      0.0939
     67  N        -42.3220  -28.1140    3.3920 N.am  172  GLY172     -0.1941
     68  CA       -41.6670  -28.0220    4.7480 C.3   172  GLY172      0.2014
     69  C        -42.2170  -29.0280    5.7980 C.2   172  GLY172      0.2639
     70  O        -43.4150  -29.3430    5.7460 O.2   172  GLY172     -0.2714
     71  N        -41.3810  -29.5480    6.7330 N.am  173  LYS173     -0.1963
     72  CA       -41.9200  -30.4120    7.8310 C.3   173  LYS173      0.1728
     73  C        -43.0390  -29.6970    8.5980 C.2   173  LYS173      0.2616
     74  O        -44.0780  -30.2770    8.8770 O.2   173  LYS173     -0.2715
     75  CB       -40.8780  -30.9740    8.8310 C.3   173  LYS173      0.0311
     76  CG       -41.2980  -32.3890    9.3880 C.3   173  LYS173      0.0038
     77  CD       -40.3860  -33.0410   10.5100 C.3   173  LYS173      0.0206
     78  CE       -39.3790  -34.2320   10.0570 C.3   173  LYS173      0.1093
     79  NZ       -37.8290  -33.8790    9.7530 N.3   173  LYS173     -0.1314
     80  N        -42.8380  -28.4240    8.9270 N.am  174  VAL174     -0.1963
     81  CA       -43.8620  -27.7290    9.7150 C.3   174  VAL174      0.1727
     82  C        -44.8480  -26.9750    8.8170 C.2   174  VAL174      0.2616
     83  O        -45.6350  -26.1840    9.3380 O.2   174  VAL174     -0.2715
     84  CB       -43.2890  -26.8180   10.8580 C.3   174  VAL174      0.0290
     85  CG1      -42.5790  -27.6890   11.9610 C.3   174  VAL174      0.0023
     86  CG2      -42.3960  -25.6750   10.3210 C.3   174  VAL174      0.0023
     87  N        -44.8300  -27.2320    7.4940 N.am  175  CYS175     -0.1954
     88  CA       -45.6960  -26.5010    6.6320 C.3   175  CYS175      0.1843
     89  C        -46.9950  -27.2750    6.3850 C.2   175  CYS175      0.2625
     90  O        -47.0090  -28.5380    6.2230 O.2   175  CYS175     -0.2714
     91  CB       -45.0030  -26.0570    5.3340 C.3   175  CYS175      0.0997
     92  SG       -46.0660  -24.8660    4.3340 S.3   175  CYS175     -0.0797
     93  N        -48.0900  -26.4960    6.3270 N.am  176  ILE176     -0.1963
     94  CA       -49.4720  -27.0240    6.3310 C.3   176  ILE176      0.1727
     95  C        -50.2810  -26.4630    5.1580 C.2   176  ILE176      0.2616
     96  O        -51.4560  -26.6410    5.0730 O.2   176  ILE176     -0.2715
     97  CB       -50.0740  -26.7100    7.7700 C.3   176  ILE176      0.0290
     98  CG1      -50.6060  -27.9410    8.4680 C.3   176  ILE176      0.0022
     99  CG2      -50.9310  -25.3750    7.8550 C.3   176  ILE176      0.0023
    100  CD1      -51.8840  -27.5700    9.2800 C.3   176  ILE176      0.0001
    101  N        -49.6160  -25.7560    4.2370 N.am  177  THR177     -0.1951
    102  CA       -50.1980  -25.2760    2.9760 C.3   177  THR177      0.1897
    103  C        -50.8090  -26.4180    2.1880 C.2   177  THR177      0.2313
    104  O        -51.8820  -26.2670    1.7150 O.2   177  THR177     -0.2863
    105  CB       -49.0810  -24.6950    2.1080 C.3   177  THR177      0.1794
    106  OG1      -48.5090  -23.5900    2.8120 O.3   177  THR177     -0.2208
    107  CG2      -49.5690  -24.3370    0.6710 C.3   177  THR177      0.0378
    108  N        -35.9780  -25.5800   -1.8290 N.3   207  ASP207     -0.1225
    109  CA       -36.3630  -25.1990   -0.5050 C.3   207  ASP207      0.1805
    110  C        -37.4000  -26.1590    0.0790 C.2   207  ASP207      0.2598
    111  O        -38.5860  -26.1380   -0.3190 O.2   207  ASP207     -0.2718
    112  CB       -36.9570  -23.8160   -0.5970 C.3   207  ASP207      0.1424
    113  CG       -37.2970  -23.1890    0.7990 C.2   207  ASP207      0.3668
    114  OD1      -36.9950  -23.7540    1.8510 O.co2 207  ASP207     -0.2456
    115  OD2      -37.9600  -22.1460    0.8140 O.co2 207  ASP207     -0.2456
    116  N        -36.9850  -26.9870    1.0270 N.am  208  GLY208     -0.1942
    117  CA       -38.0270  -27.7760    1.8160 C.3   208  GLY208      0.2014
    118  C        -38.0710  -29.2740    1.3840 C.2   208  GLY208      0.2639
    119  O        -37.6780  -29.6360    0.2780 O.2   208  GLY208     -0.2714
    120  N        -38.5310  -30.1490    2.2760 N.am  209  GLY209     -0.1939
    121  CA       -38.6390  -31.5950    1.9570 C.3   209  GLY209      0.2014
    122  C        -37.3970  -32.4230    2.2970 C.2   209  GLY209      0.2639
    123  O        -37.4730  -33.6090    2.3260 O.2   209  GLY209     -0.2714
    124  N        -36.2470  -31.8200    2.5180 N.am  210  ILE210     -0.1963
    125  CA       -35.0020  -32.5590    2.8440 C.3   210  ILE210      0.1727
    126  C        -35.1480  -33.2810    4.2120 C.2   210  ILE210      0.2616
    127  O        -35.4640  -32.6390    5.2150 O.2   210  ILE210     -0.2715
    128  CB       -33.8070  -31.5920    2.8910 C.3   210  ILE210      0.0290
    129  CG1      -33.6960  -30.8180    1.5980 C.3   210  ILE210      0.0022
    130  CG2      -32.5330  -32.2870    3.1730 C.3   210  ILE210      0.0023
    131  CD1      -33.3530  -31.6340    0.3310 C.3   210  ILE210      0.0001
    132  N        -35.0220  -34.6210    4.2050 N.am  211  ARG211     -0.1977
    133  CA       -35.2330  -35.4570    5.4310 C.3   211  ARG211      0.1597
    134  C        -33.9570  -36.2090    5.8260 C.2   211  ARG211      0.2287
    135  O        -33.8730  -36.6490    6.9520 O.2   211  ARG211     -0.2864
    136  CB       -36.3340  -36.4970    5.2470 C.3   211  ARG211      0.0334
    137  CG       -37.8290  -36.0010    5.1650 C.3   211  ARG211      0.0492
    138  CD       -38.1760  -35.0670    6.3560 C.3   211  ARG211      0.2205
    139  NE       -39.3850  -34.2550    6.0900 N.pl3 211  ARG211     -0.0865
    140  CZ       -39.3790  -32.9330    5.8850 C.cat 211  ARG211      0.5346
    141  NH1      -38.2280  -32.1960    5.8580 N.pl3 211  ARG211      0.1354
    142  NH2      -40.5400  -32.3470    5.6610 N.pl3 211  ARG211      0.1354
    143  N        -32.0130  -25.3110    0.7690 N.3   228  MET228     -0.1230
    144  CA       -32.4650  -24.7650    2.0160 C.3   228  MET228      0.1702
    145  C        -33.0790  -25.8330    2.9340 C.2   228  MET228      0.2592
    146  O        -33.9710  -26.6040    2.5470 O.2   228  MET228     -0.2718
    147  CB       -33.4120  -23.5860    1.7150 C.3   228  MET228      0.0401
    148  CG       -33.9560  -22.9680    2.9800 C.3   228  MET228      0.0596
    149  SD       -34.6760  -21.3840    2.7610 S.3   228  MET228     -0.1393
    150  CE       -33.2920  -20.2480    2.7650 C.3   228  MET228      0.0692
    151  N        -32.6680  -25.8120    4.2060 N.am  229  ILE229     -0.1966
    152  CA       -33.0120  -26.9100    5.1720 C.3   229  ILE229      0.1727
    153  C        -33.4830  -26.2660    6.4560 C.2   229  ILE229      0.2617
    154  O        -32.7860  -25.4060    7.0270 O.2   229  ILE229     -0.2715
    155  CB       -31.7630  -27.7980    5.3940 C.3   229  ILE229      0.0290
    156  CG1      -31.3570  -28.5850    4.0870 C.3   229  ILE229      0.0022
    157  CG2      -31.9400  -28.7660    6.5780 C.3   229  ILE229      0.0023
    158  CD1      -29.9330  -29.1460    4.1110 C.3   229  ILE229      0.0001
    159  N        -34.6740  -26.6260    6.9020 N.am  230  GLY230     -0.1940
    160  CA       -35.2240  -26.0790    8.1400 C.3   230  GLY230      0.2014
    161  C        -35.1190  -27.2010    9.1690 C.2   230  GLY230      0.2639
    162  O        -34.1970  -27.2110   10.0410 O.2   230  GLY230     -0.2714
    163  N        -35.9500  -28.2190    8.9680 N.am  231  SER231     -0.1949
    164  CA       -36.0430  -29.3750    9.8770 C.3   231  SER231      0.1924
    165  C        -34.7150  -29.9520   10.3540 C.2   231  SER231      0.2314
    166  O        -34.4930  -30.0930   11.5640 O.2   231  SER231     -0.2863
    167  CB       -36.9160  -30.4230    9.2480 C.3   231  SER231      0.2116
    168  OG       -36.6440  -31.7050    9.7030 O.3   231  SER231     -0.2180
    169  N        -39.7640  -26.0240   17.0420 N.3   251  TYR251     -0.1241
    170  CA       -39.5290  -25.6170   15.6480 C.3   251  TYR251      0.1605
    171  C        -40.8450  -25.3380   14.8890 C.2   251  TYR251      0.2264
    172  O        -41.7060  -26.1950   14.7980 O.2   251  TYR251     -0.2867
    173  CB       -38.5880  -26.6120   14.9400 C.3   251  TYR251      0.0534
    174  CG       -38.4720  -26.4710   13.4290 C.ar  251  TYR251     -0.0201
    175  CD1      -37.9210  -25.3230   12.8490 C.ar  251  TYR251     -0.0009
    176  CD2      -38.8990  -27.5310   12.5690 C.ar  251  TYR251     -0.0009
    177  CE1      -37.8110  -25.2150   11.4530 C.ar  251  TYR251      0.0417
    178  CE2      -38.8000  -27.4370   11.1760 C.ar  251  TYR251      0.0417
    179  CZ       -38.2610  -26.2770   10.6290 C.ar  251  TYR251      0.1957
    180  OH       -38.1680  -26.1740    9.2740 O.3   251  TYR251     -0.2866
    181  N        -42.9540  -22.1800   11.9180 N.3   253  GLY253     -0.1210
    182  CA       -42.7930  -21.1010   10.9160 C.3   253  GLY253      0.1956
    183  C        -43.6910  -19.8710   11.0910 C.2   253  GLY253      0.2612
    184  O        -44.5600  -19.8440   11.9870 O.2   253  GLY253     -0.2717
    185  N        -43.4650  -18.8480   10.2560 N.am  254  SER254     -0.1952
    186  CA       -44.4360  -17.7390   10.0680 C.3   254  SER254      0.1924
    187  C        -44.6460  -17.4610    8.5690 C.2   254  SER254      0.2314
    188  O        -45.7310  -17.6960    8.0260 O.2   254  SER254     -0.2863
    189  CB       -44.0100  -16.4340   10.7830 C.3   254  SER254      0.2116
    190  OG       -43.3690  -16.6730   12.0320 O.3   254  SER254     -0.2180
@<TRIPOS>BOND
     1    43    44    1
     2    45    46    2
     3    45    44    1
     4    38    37    2
     5    37    36    1
     6    44    47    1
     7    52    53    1
     8    36    35    1
     9    36    39    1
    10    47    48    1
    11    53    54    1
    12    54    55    2
    13    39    40    1
    14    48    49    1
    15   108   109    1
    16    33    32    2
    17    40    41    2
    18    40    42   am
    19    32    31    1
    20    49    50    1
    21   112   109    1
    22   112   113    1
    23   109   110    1
    24   111   110    2
    25    50    51    1
    26    65    66    1
    27    65    64    1
    28    66    60    1
    29    22    23    1
    30   110   116   am
    31    56    57    1
    32    64    61    1
    33   119   118    2
    34   131   129    1
    35    31    30    1
    36    31    34    1
    37    23    24    1
    38    23    26    1
    39   107   105    1
    40   143   144    1
    41    60    58   am
    42    60    61    1
    43   113   115   ar
    44   113   114   ar
    45    24    25    2
    46    57    58    1
    47   116   117    1
    48    58    59    2
    49    61    62    1
    50   118   117    1
    51   118   120   am
    52    28    27   ar
    53   129   128    1
    54   147   144    1
    55   147   148    1
    56   104   103    2
    57    26    27    1
    58    27    29   ar
    59   121   120    1
    60   121   122    1
    61   144   145    1
    62   105   106    1
    63   105   102    1
    64   103   102    1
    65   122   123    2
    66   122   124   am
    67   124   125    1
    68   146   145    2
    69    62    63    2
    70    62    67   am
    71   149   150    1
    72   149   148    1
    73   125   128    1
    74   125   126    1
    75   128   130    1
    76   145   151   am
    77   102   101    1
    78    67    68    1
    79    13    11   am
    80   156   158    1
    81   156   155    1
    82   132   126   am
    83   132   133    1
    84   151   152    1
    85   126   127    2
    86   101    95   am
    87    12    11    2
    88    92    91    1
    89    11    10    1
    90    68    69    1
    91    96    95    2
    92    95    94    1
    93   137   136    1
    94   137   138    1
    95   152   155    1
    96   152   153    1
    97   136   133    1
    98    91    88    1
    99   155   157    1
   100   133   134    1
   101    10     7    1
   102   142   140    1
   103    70    69    2
   104    69    71   am
   105   134   135    2
   106   141   140    1
   107   140   139    2
   108   139   138    1
   109     6     7    1
   110     6     3   am
   111    90    89    2
   112    93    94    1
   113    93    89   am
   114    94    97    1
   115     2     1    1
   116     2     5    1
   117     2     3    1
   118    89    88    1
   119   153   159   am
   120   153   154    2
   121     7     8    1
   122    88    87    1
   123    71    72    1
   124   159   160    1
   125     3     4    2
   126     9     8    2
   127    87    82   am
   128     8    14   am
   129    97    99    1
   130    97    98    1
   131    72    73    1
   132    72    75    1
   133   188   187    2
   134   160   161    1
   135    98   100    1
   136    19    20    1
   137    19    18    1
   138   187   186    1
   139    73    74    2
   140    73    80   am
   141    14    15    1
   142    20    21    1
   143    82    83    2
   144    82    81    1
   145    75    76    1
   146    80    81    1
   147   163   161   am
   148   163   164    1
   149   161   162    2
   150   167   168    1
   151   167   164    1
   152   180   179    1
   153    76    77    1
   154    15    18    1
   155    15    16    1
   156    81    84    1
   157    79    78    1
   158   164   165    1
   159    78    77    1
   160   186   185    1
   161   186   189    1
   162   185   183   am
   163    86    84    1
   164   165   166    2
   165   179   178   ar
   166   179   177   ar
   167   189   190    1
   168    84    85    1
   169   182   183    1
   170   182   181    1
   171    16    17    1
   172   183   184    2
   173   178   176   ar
   174   177   175   ar
   175   176   174   ar
   176   175   174   ar
   177   174   173    1
   178   172   171    2
   179   171   170    1
   180   173   170    1
   181   170   169    1
