@<TRIPOS>MOLECULE
tmp/2a25A00.pdb
 158 155 0 0 0
SMALL
GASTEIGER

@<TRIPOS>ATOM
      1  N          8.7840   32.5150    0.4510 N.3     6  CYS6       -0.1221
      2  CA         8.1780   32.0220    1.6900 C.3     6  CYS6        0.1793
      3  C          8.8430   30.7550    2.1390 C.2     6  CYS6        0.2440
      4  O          9.0590   29.8500    1.3410 O.2     6  CYS6       -0.2733
      5  CB         6.6960   31.7260    1.5280 C.3     6  CYS6        0.0970
      6  SG         5.8280   33.1580    0.9300 S.3     6  CYS6       -0.0800
      7  N          9.1830   30.6940    3.4210 N.am    7  PRO7       -0.2774
      8  CA         9.6880   29.4480    3.9980 C.3     7  PRO7        0.1083
      9  C          8.5380   28.4900    4.1670 C.3     7  PRO7        0.2017
     10  O          8.8870   27.3210    4.1050 O.3     7  PRO7       -0.2186
     11  CB        10.2500   29.8680    5.3630 C.3     7  PRO7        0.0243
     12  CG         9.7530   31.1660    5.6420 C.3     7  PRO7        0.0233
     13  CD         9.1110   31.7790    4.4060 C.3     7  PRO7        0.0935
     14  N          0.2320   36.2540    4.9250 N.3    29  ILE29      -0.1231
     15  CA         1.4210   36.9150    5.4460 C.3    29  ILE29       0.1692
     16  C          1.0600   38.3860    5.7290 C.2    29  ILE29       0.2592
     17  O          0.5810   39.0920    4.8340 O.2    29  ILE29      -0.2718
     18  CB         2.6060   36.7860    4.4480 C.3    29  ILE29       0.0266
     19  CG1        3.0250   35.3170    4.3300 C.3    29  ILE29       0.0019
     20  CG2        3.7760   37.6480    4.8800 C.3    29  ILE29       0.0020
     21  CD1        3.9030   35.0100    3.1300 C.3    29  ILE29       0.0001
     22  N          1.2600   38.8310    6.9630 N.am   30  THR30      -0.1953
     23  CA         0.9920   40.2250    7.3480 C.3    30  THR30       0.1897
     24  C          2.1130   41.1180    6.8430 C.2    30  THR30       0.2313
     25  O          3.2920   40.7360    6.8960 O.2    30  THR30      -0.2863
     26  CB         0.9040   40.3970    8.8810 C.3    30  THR30       0.1794
     27  OG1        0.1610   39.3180    9.4590 O.3    30  THR30      -0.2208
     28  CG2        0.0330   41.6230    9.2240 C.3    30  THR30       0.0378
     29  N          3.7210   45.0000    7.4540 N.3    32  LEU32      -0.1231
     30  CA         3.7380   46.2020    8.2880 C.3    32  LEU32       0.1693
     31  C          4.5040   47.3400    7.5900 C.2    32  LEU32       0.2592
     32  O          5.6070   47.1300    7.0740 O.2    32  LEU32      -0.2718
     33  CB         4.4400   45.9090    9.6130 C.3    32  LEU32       0.0284
     34  CG         3.7300   45.7900   10.9490 C.3    32  LEU32       0.0019
     35  CD1        4.8000   45.9530   12.0120 C.3    32  LEU32       0.0001
     36  CD2        2.5650   46.7740   11.1640 C.3    32  LEU32       0.0001
     37  N          3.9290   48.5380    7.5950 N.am   33  GLN33      -0.1966
     38  CA         4.6080   49.7200    7.0620 C.3    33  GLN33       0.1733
     39  C          5.4610   50.3410    8.1610 C.2    33  GLN33       0.2616
     40  O          4.9790   50.5200    9.2640 O.2    33  GLN33      -0.2715
     41  CB         3.5840   50.7670    6.5740 C.3    33  GLN33       0.0408
     42  CG         2.6180   50.2700    5.4890 C.3    33  GLN33       0.0908
     43  CD         3.3340   49.9810    4.1620 C.2    33  GLN33       0.2608
     44  OE1        4.2850   50.6910    3.8070 O.2    33  GLN33      -0.2717
     45  NE2        2.8930   48.9330    3.4420 N.am   33  GLN33      -0.0878
     46  N          6.7150   50.6700    7.8680 N.am   34  GLY34      -0.1955
     47  CA         7.5750   51.3290    8.8580 C.3    34  GLY34       0.1869
     48  C          8.9890   50.7840    8.8470 C.2    34  GLY34       0.2309
     49  O          9.2100   49.6490    8.4310 O.2    34  GLY34      -0.2863
     50  N         11.0410   50.7160   11.5720 N.3    36  ASP36      -0.1225
     51  CA        11.3770   50.2790   12.9190 C.3    36  ASP36       0.1805
     52  C         10.1340   49.6420   13.5130 C.2    36  ASP36       0.2598
     53  O          9.2060   50.3620   13.9150 O.2    36  ASP36      -0.2718
     54  CB        11.7580   51.5050   13.7640 C.3    36  ASP36       0.1424
     55  CG        12.5630   51.1380   15.0020 C.2    36  ASP36       0.3668
     56  OD1       13.0070   49.9730   15.1720 O.co2  36  ASP36      -0.2456
     57  OD2       12.8100   51.9750   15.8650 O.co2  36  ASP36      -0.2456
     58  N         10.0910   48.3080   13.5360 N.am   37  ILE37      -0.1966
     59  CA         8.8670   47.5770   13.9320 C.3    37  ILE37       0.1727
     60  C          9.1170   46.4430   14.9410 C.2    37  ILE37       0.2616
     61  O         10.2660   46.0750   15.2050 O.2    37  ILE37      -0.2715
     62  CB         8.1590   47.0070   12.6730 C.3    37  ILE37       0.0290
     63  CG1        9.0670   46.0510   11.9130 C.3    37  ILE37       0.0022
     64  CG2        7.7220   48.1430   11.7260 C.3    37  ILE37       0.0023
     65  CD1        8.7510   44.5720   12.1250 C.3    37  ILE37       0.0001
     66  N          8.0390   45.8850   15.4860 N.am   38  VAL38      -0.1963
     67  CA         8.1500   44.7150   16.3490 C.3    38  VAL38       0.1727
     68  C          7.5140   43.4850   15.6880 C.2    38  VAL38       0.2616
     69  O          6.3320   43.4920   15.3470 O.2    38  VAL38      -0.2715
     70  CB         7.5440   44.9650   17.7510 C.3    38  VAL38       0.0290
     71  CG1        7.7730   43.7630   18.6470 C.3    38  VAL38       0.0023
     72  CG2        8.1500   46.2370   18.4000 C.3    38  VAL38       0.0023
     73  N          8.3190   42.4610   15.4870 N.am   39  PHE39      -0.1960
     74  CA         7.8960   41.1980   14.8760 C.3    39  PHE39       0.1771
     75  C          7.6060   40.3130   16.0590 C.2    39  PHE39       0.2619
     76  O          8.5220   39.7890   16.6370 O.2    39  PHE39      -0.2715
     77  CB         9.0880   40.6590   14.0510 C.3    39  PHE39       0.0574
     78  CG         8.9020   39.2850   13.4100 C.ar   39  PHE39      -0.0200
     79  CD1        7.6880   38.5980   13.4130 C.ar   39  PHE39      -0.0042
     80  CD2        9.9960   38.6900   12.7810 C.ar   39  PHE39      -0.0042
     81  CE1        7.5800   37.3360   12.8080 C.ar   39  PHE39      -0.0003
     82  CE2        9.8930   37.4020   12.1620 C.ar   39  PHE39      -0.0003
     83  CZ         8.6830   36.7390   12.1820 C.ar   39  PHE39      -0.0000
     84  N          6.3380   40.2160   16.4490 N.am   40  LEU40      -0.1977
     85  CA         5.9290   39.4820   17.6360 C.3    40  LEU40       0.1596
     86  C          5.4890   38.0760   17.2580 C.2    40  LEU40       0.2287
     87  O          4.3370   37.8600   16.8940 O.2    40  LEU40      -0.2864
     88  CB         4.7530   40.2120   18.3640 C.3    40  LEU40       0.0297
     89  CG         4.5630   40.0080   19.8750 C.3    40  LEU40       0.0022
     90  CD1        3.2630   40.6740   20.4270 C.3    40  LEU40       0.0001
     91  CD2        4.6330   38.5290   20.3010 C.3    40  LEU40       0.0001
     92  N          4.3490   34.2780   17.9490 N.3    42  THR42      -0.1203
     93  CA         3.5650   33.6280   19.0090 C.3    42  THR42       0.1994
     94  C          3.7240   32.1080   19.0160 C.2    42  THR42       0.2617
     95  O          3.9690   31.5100   17.9770 O.2    42  THR42      -0.2717
     96  CB         2.0520   34.0170   18.8930 C.3    42  THR42       0.1784
     97  OG1        1.5240   33.4800   17.6800 O.3    42  THR42      -0.2211
     98  CG2        1.8620   35.5270   18.7100 C.3    42  THR42       0.0376
     99  N          3.5710   31.4960   20.1950 N.am   43  ASP43      -0.1973
    100  CA         3.7820   30.0490   20.4350 C.3    43  ASP43       0.1709
    101  C          5.1010   29.4100   19.9920 C.2    43  ASP43       0.2293
    102  O          5.0920   28.4360   19.2330 O.2    43  ASP43      -0.2864
    103  CB         2.6220   29.1840   19.9200 C.3    43  ASP43       0.1436
    104  CG         2.6120   27.7740   20.5580 C.2    43  ASP43       0.3671
    105  OD1        3.4160   27.5060   21.4970 O.co2  43  ASP43      -0.2456
    106  OD2        1.8400   26.8630   20.1860 O.co2  43  ASP43      -0.2456
    107  N          8.8540   24.6790   12.7160 N.3    46  VAL46      -0.1231
    108  CA         8.1350   25.9420   12.8430 C.3    46  VAL46       0.1692
    109  C          8.8080   27.1570   12.1670 C.2    46  VAL46       0.2592
    110  O          9.9980   27.3980   12.3490 O.2    46  VAL46      -0.2718
    111  CB         7.8500   26.2810   14.3140 C.3    46  VAL46       0.0266
    112  CG1        6.5710   27.0810   14.4090 C.3    46  VAL46       0.0020
    113  CG2        7.7330   25.0410   15.1320 C.3    46  VAL46       0.0020
    114  N          8.0090   27.8950   11.3940 N.am   47  ASP47      -0.1960
    115  CA         8.4100   29.1190   10.7210 C.3    47  ASP47       0.1840
    116  C          7.4000   30.1980   11.0760 C.2    47  ASP47       0.2622
    117  O          6.1990   29.9200   11.1950 O.2    47  ASP47      -0.2715
    118  CB         8.3800   28.9510    9.1970 C.3    47  ASP47       0.1450
    119  CG         9.3910   27.9560    8.6900 C.2    47  ASP47       0.3671
    120  OD1       10.5610   28.0860    9.0460 O.co2  47  ASP47      -0.2456
    121  OD2        9.1220   27.0100    7.9280 O.co2  47  ASP47      -0.2456
    122  N          7.8730   31.4150   11.2720 N.am   48  TRP48      -0.1960
    123  CA         6.9840   32.5690   11.3280 C.3    48  TRP48       0.1771
    124  C          7.4760   33.4750   10.2080 C.2    48  TRP48       0.2620
    125  O          8.7040   33.5960   10.0120 O.2    48  TRP48      -0.2715
    126  CB         7.1230   33.3110   12.6490 C.3    48  TRP48       0.0590
    127  CG         6.6580   32.5540   13.8630 C.ar   48  TRP48       0.0006
    128  CD1        5.5040   32.7730   14.5670 C.ar   48  TRP48       0.0946
    129  CD2        7.3400   31.4820   14.5440 C.ar   48  TRP48       0.0152
    130  NE1        5.4200   31.8990   15.6260 N.ar   48  TRP48      -0.2442
    131  CE2        6.5350   31.1060   15.6490 C.ar   48  TRP48       0.0810
    132  CE3        8.5620   30.8080   14.3450 C.ar   48  TRP48       0.0012
    133  CZ2        6.9000   30.0660   16.5400 C.ar   48  TRP48       0.0191
    134  CZ3        8.9320   29.8010   15.2330 C.ar   48  TRP48       0.0001
    135  CH2        8.0930   29.4270   16.3140 C.ar   48  TRP48       0.0015
    136  N          6.5440   34.1220    9.5020 N.am   49  VAL49      -0.1963
    137  CA         6.8860   35.0190    8.4010 C.3    49  VAL49       0.1727
    138  C          6.0030   36.2530    8.3910 C.2    49  VAL49       0.2616
    139  O          4.7940   36.1390    8.5550 O.2    49  VAL49      -0.2715
    140  CB         6.6680   34.3380    7.0180 C.3    49  VAL49       0.0290
    141  CG1        7.3790   35.1700    5.9030 C.3    49  VAL49       0.0023
    142  CG2        7.1760   32.9270    7.0400 C.3    49  VAL49       0.0023
    143  N          6.6130   37.4120    8.1520 N.am   50  MET50      -0.1977
    144  CA         5.8760   38.6340    7.8890 C.3    50  MET50       0.1605
    145  C          6.6980   39.4510    6.9170 C.2    50  MET50       0.2287
    146  O          7.8440   39.1200    6.5870 O.2    50  MET50      -0.2864
    147  CB         5.6400   39.4560    9.1690 C.3    50  MET50       0.0413
    148  CG         6.9600   40.0020    9.7940 C.3    50  MET50       0.0598
    149  SD         6.5660   41.1530   11.1480 S.3    50  MET50      -0.1393
    150  CE         6.1180   42.5980   10.1510 C.3    50  MET50       0.0692
    151  N         12.6240   43.1980   17.7020 N.3   140  ASN140     -0.1240
    152  CA        12.5960   44.5480   17.1440 C.3   140  ASN140      0.1653
    153  C         13.4000   44.5380   15.8650 C.2   140  ASN140      0.2266
    154  O         14.5790   44.1690   15.8810 O.2   140  ASN140     -0.2867
    155  CB        13.2460   45.5530   18.0930 C.3   140  ASN140      0.1155
    156  CG        12.4460   45.7660   19.3370 C.2   140  ASN140      0.2627
    157  OD1       12.5260   44.9760   20.2790 O.2   140  ASN140     -0.2716
    158  ND2       11.6720   46.8320   19.3650 N.am  140  ASN140     -0.0877
@<TRIPOS>BOND
     1     1     2    1
     2     6     5    1
     3     4     3    2
     4     5     2    1
     5     2     3    1
     6     3     7   am
     7    21    19    1
     8     7     8    1
     9     7    13    1
    10    45    43   am
    11    44    43    2
    12     8     9    1
    13     8    11    1
    14    10     9    1
    15    43    42    1
    16    19    18    1
    17    13    12    1
    18    18    20    1
    19    18    15    1
    20    17    16    2
    21    14    15    1
    22    11    12    1
    23    15    16    1
    24    42    41    1
    25    16    22   am
    26   141   140    1
    27    41    38    1
    28   146   145    2
    29    24    25    2
    30    24    23    1
    31   145   144    1
    32    22    23    1
    33   140   142    1
    34   140   137    1
    35    38    37    1
    36    38    39    1
    37    32    31    2
    38    23    26    1
    39    29    30    1
    40    31    37   am
    41    31    30    1
    42    46    39   am
    43    46    47    1
    44   144   143    1
    45   144   147    1
    46   121   119   ar
    47   143   138   am
    48    39    40    2
    49    30    33    1
    50   138   137    1
    51   138   139    2
    52   137   136    1
    53    49    48    2
    54   119   120   ar
    55   119   118    1
    56    48    47    1
    57    26    28    1
    58    26    27    1
    59   147   148    1
    60   118   115    1
    61   136   124   am
    62    33    34    1
    63   148   149    1
    64   125   124    2
    65   150   149    1
    66   124   123    1
    67   115   116    1
    68   115   114    1
    69    34    36    1
    70    34    35    1
    71   116   117    2
    72   116   122   am
    73   122   123    1
    74   123   126    1
    75   114   109   am
    76    50    51    1
    77    64    62    1
    78    63    65    1
    79    63    62    1
    80    82    83   ar
    81    82    80   ar
    82   109   110    2
    83   109   108    1
    84    83    81   ar
    85   126   127    1
    86    62    59    1
    87   107   108    1
    88    80    78   ar
    89    81    79   ar
    90   108   111    1
    91    51    52    1
    92    51    54    1
    93    78    79   ar
    94    78    77    1
    95    52    58   am
    96    52    53    2
    97    58    59    1
    98    54    55    1
    99   127   129   ar
   100   127   128   ar
   101    59    60    1
   102    77    74    1
   103   111   112    1
   104   111   113    1
   105   132   129   ar
   106   132   134   ar
   107   129   131   ar
   108   128   130   ar
   109    74    73    1
   110    74    75    1
   111    60    61    2
   112    60    66   am
   113    55    56   ar
   114    55    57   ar
   115   134   135   ar
   116    69    68    2
   117    66    67    1
   118    73    68   am
   119   130   131   ar
   120   131   133   ar
   121    68    67    1
   122   153   154    2
   123   153   152    1
   124    75    84   am
   125    75    76    2
   126   135   133   ar
   127    67    70    1
   128    84    85    1
   129    87    86    2
   130   152   151    1
   131   152   155    1
   132    86    85    1
   133    85    88    1
   134    97    96    1
   135    70    72    1
   136    70    71    1
   137    92    93    1
   138    95    94    2
   139   155   156    1
   140    88    89    1
   141    98    96    1
   142    96    93    1
   143    93    94    1
   144    94    99   am
   145   102   101    2
   146   156   158   am
   147   156   157    2
   148    89    91    1
   149    89    90    1
   150   103   100    1
   151   103   104    1
   152   101   100    1
   153   106   104   ar
   154    99   100    1
   155   104   105   ar
