@<TRIPOS>MOLECULE
tmp/2a2aB00.pdb
 76 73 0 0 0
SMALL
GASTEIGER

@<TRIPOS>ATOM
      1  N        -18.5480   10.8120   10.5530 N.3   176  ILE176     -0.1231
      2  CA       -18.4190    9.5130   11.2030 C.3   176  ILE176      0.1692
      3  C        -17.4060    9.5980   12.3550 C.2   176  ILE176      0.2592
      4  O        -16.2310    9.8830   12.1470 O.2   176  ILE176     -0.2718
      5  CB       -18.0340    8.4470   10.1590 C.3   176  ILE176      0.0266
      6  CG1      -19.0480    8.3610    9.0250 C.3   176  ILE176      0.0019
      7  CG2      -17.8880    7.0900   10.8620 C.3   176  ILE176      0.0020
      8  CD1      -18.7510    7.3430    7.9120 C.3   176  ILE176      0.0001
      9  N        -17.8670    9.3440   13.5910 N.am  177  PHE177     -0.1962
     10  CA       -17.0730    9.5920   14.7810 C.3   177  PHE177      0.1771
     11  C        -17.6940    8.7980   15.9430 C.2   177  PHE177      0.2620
     12  O        -18.7720    8.2270   15.7800 O.2   177  PHE177     -0.2715
     13  CB       -17.0140   11.1190   15.0930 C.3   177  PHE177      0.0574
     14  CG       -18.3810   11.7360   15.2050 C.ar  177  PHE177     -0.0200
     15  CD1      -19.1600   11.4800   16.3230 C.ar  177  PHE177     -0.0042
     16  CD2      -18.9640   12.3660   14.1550 C.ar  177  PHE177     -0.0042
     17  CE1      -20.4270   11.9510   16.4060 C.ar  177  PHE177     -0.0003
     18  CE2      -20.2450   12.8320   14.2400 C.ar  177  PHE177     -0.0003
     19  CZ       -20.9720   12.5930   15.3800 C.ar  177  PHE177     -0.0000
     20  N        -17.0210    8.8280   17.0870 N.am  178  GLY178     -0.1940
     21  CA       -17.5330    8.2610   18.3330 C.3   178  GLY178      0.2014
     22  C        -17.0710    6.8200   18.5540 C.2   178  GLY178      0.2640
     23  O        -16.3640    6.2390   17.7510 O.2   178  GLY178     -0.2714
     24  N        -17.5470    6.2390   19.6330 N.am  179  THR179     -0.1937
     25  CA       -17.2470    4.8900   20.0370 C.3   179  THR179      0.2013
     26  C        -18.3460    4.0050   19.4980 C.2   179  THR179      0.2484
     27  O        -19.5050    4.2080   19.8690 O.2   179  THR179     -0.2729
     28  CB       -17.1870    4.8460   21.5670 C.3   179  THR179      0.1807
     29  OG1      -16.1390    5.7040   22.0210 O.3   179  THR179     -0.2208
     30  CG2      -16.8830    3.4770   22.0550 C.3   179  THR179      0.0379
     31  N        -18.0170    3.0200   18.6130 N.am  180  PRO180     -0.2726
     32  CA       -19.0520    2.2090   17.9720 C.3   180  PRO180      0.1402
     33  C        -20.1760    1.7070   18.8810 C.2   180  PRO180      0.2269
     34  O        -21.3480    1.8650   18.5320 O.2   180  PRO180     -0.2865
     35  CB       -18.2540    1.0370   17.3760 C.3   180  PRO180      0.0296
     36  CG       -16.9500    1.6070   17.0570 C.3   180  PRO180      0.0237
     37  CD       -16.6860    2.6920   18.0580 C.3   180  PRO180      0.0939
     38  N        -22.8240    4.6750   19.2830 N.3   183  VAL183     -0.1245
     39  CA       -23.2470    5.5700   18.2180 C.3   183  VAL183      0.1561
     40  C        -24.5480    5.1160   17.5510 C.2   183  VAL183      0.2260
     41  O        -24.8570    3.9410   17.4190 O.2   183  VAL183     -0.2867
     42  CB       -22.1580    5.7940   17.1670 C.3   183  VAL183      0.0252
     43  CG1      -20.9340    6.3460   17.8160 C.3   183  VAL183      0.0019
     44  CG2      -21.9110    4.5320   16.3480 C.3   183  VAL183      0.0019
     45  N        -25.0490    7.8120   12.3600 N.3   187  ILE187     -0.1231
     46  CA       -23.6180    7.9500   12.3310 C.3   187  ILE187      0.1692
     47  C        -23.0200    6.8540   11.4460 C.2   187  ILE187      0.2591
     48  O        -22.2880    7.1610   10.4940 O.2   187  ILE187     -0.2718
     49  CB       -23.0260    7.9440   13.7520 C.3   187  ILE187      0.0266
     50  CG1      -23.4920    9.2320   14.4630 C.3   187  ILE187      0.0019
     51  CG2      -21.5110    7.9860   13.6940 C.3   187  ILE187      0.0020
     52  CD1      -23.0950    9.3680   15.9670 C.3   187  ILE187      0.0001
     53  N        -23.3140    5.5980   11.7730 N.am  188  VAL188     -0.1980
     54  CA       -22.8320    4.4720   10.9690 C.3   188  VAL188      0.1595
     55  C        -23.1370    4.6170    9.4470 C.2   188  VAL188      0.2287
     56  O        -22.2770    4.3610    8.5860 O.2   188  VAL188     -0.2864
     57  CB       -23.2700    3.1050   11.5100 C.3   188  VAL188      0.0276
     58  CG1      -22.5850    1.9380   10.7610 C.3   188  VAL188      0.0022
     59  CG2      -22.9230    2.9940   13.0310 C.3   188  VAL188      0.0022
     60  N        -15.9650   -5.0560   15.8460 N.3   221  LYS221     -0.1245
     61  CA       -16.6170   -3.8320   15.3150 C.3   221  LYS221      0.1561
     62  C        -17.5530   -4.1600   14.1720 C.2   221  LYS221      0.2260
     63  O        -18.6830   -3.6120   14.1090 O.2   221  LYS221     -0.2867
     64  CB       -15.5700   -2.7680   14.9580 C.3   221  LYS221      0.0271
     65  CG       -16.1540   -1.5740   14.1930 C.3   221  LYS221      0.0035
     66  CD       -15.1650   -0.4350   13.9800 C.3   221  LYS221      0.0206
     67  CE       -14.0650   -0.7860   13.0500 C.3   221  LYS221      0.1093
     68  NZ       -13.3100    0.4670   12.7750 N.3   221  LYS221     -0.1314
     69  N        -21.4470   -2.8830   14.2130 N.3   225  LEU225     -0.1245
     70  CA       -22.0020   -1.9680   13.2480 C.3   225  LEU225      0.1561
     71  C        -23.2030   -2.5950   12.5700 C.2   225  LEU225      0.2260
     72  O        -24.1900   -1.9200   12.3300 O.2   225  LEU225     -0.2867
     73  CB       -20.9370   -1.5850   12.2190 C.3   225  LEU225      0.0270
     74  CG       -19.7370   -0.8020   12.7500 C.3   225  LEU225      0.0019
     75  CD1      -18.7980   -0.4910   11.5780 C.3   225  LEU225      0.0001
     76  CD2      -20.0860    0.4740   13.5010 C.3   225  LEU225      0.0001
@<TRIPOS>BOND
     1     8     6    1
     2    56    55    2
     3     6     5    1
     4    55    54    1
     5     5     7    1
     6     5     2    1
     7    48    47    2
     8     1     2    1
     9    58    57    1
    10    54    57    1
    11    54    53    1
    12     2     3    1
    13    47    53   am
    14    47    46    1
    15    57    59    1
    16    75    74    1
    17     4     3    2
    18    73    74    1
    19    73    70    1
    20    72    71    2
    21    46    45    1
    22    46    49    1
    23     3     9   am
    24    71    70    1
    25    74    76    1
    26    68    67    1
    27    67    66    1
    28    70    69    1
    29     9    10    1
    30    51    49    1
    31    49    50    1
    32    66    65    1
    33    63    62    2
    34    16    18   ar
    35    16    14   ar
    36    62    61    1
    37    65    64    1
    38    18    19   ar
    39    50    52    1
    40    10    13    1
    41    10    11    1
    42    64    61    1
    43    13    14    1
    44    14    15   ar
    45    61    60    1
    46    19    17   ar
    47    12    11    2
    48    11    20   am
    49    15    17   ar
    50    44    42    1
    51    36    35    1
    52    36    37    1
    53    20    21    1
    54    42    43    1
    55    42    39    1
    56    35    32    1
    57    41    40    2
    58    40    39    1
    59    23    22    2
    60    32    31    1
    61    32    33    1
    62    37    31    1
    63    39    38    1
    64    21    22    1
    65    34    33    2
    66    22    24   am
    67    31    26   am
    68    26    27    2
    69    26    25    1
    70    24    25    1
    71    25    28    1
    72    28    29    1
    73    28    30    1
