@<TRIPOS>MOLECULE
tmp/2a2cA01.pdb
 189 183 0 0 0
SMALL
GASTEIGER

@<TRIPOS>ATOM
      1  N         54.5060   18.0760   -2.7520 N.3    66  VAL66      -0.1245
      2  CA        55.3070   17.8770   -1.5490 C.3    66  VAL66       0.1561
      3  C         56.1050   16.6040   -1.8240 C.2    66  VAL66       0.2260
      4  O         55.5450   15.5400   -2.1430 O.2    66  VAL66      -0.2867
      5  CB        54.4990   17.7640   -0.2410 C.3    66  VAL66       0.0252
      6  CG1       55.4010   17.2440    0.8980 C.3    66  VAL66       0.0019
      7  CG2       53.9020   19.1350    0.1490 C.3    66  VAL66       0.0019
      8  N         63.2050   19.8960    6.9410 N.3    82  ASN82      -0.1240
      9  CA        62.6780   20.5670    5.7490 C.3    82  ASN82       0.1653
     10  C         63.7900   21.2460    4.9730 C.2    82  ASN82       0.2266
     11  O         64.7680   21.7260    5.5640 O.2    82  ASN82      -0.2867
     12  CB        61.6460   21.6330    6.1880 C.3    82  ASN82       0.1155
     13  CG        60.6640   22.0020    5.0750 C.2    82  ASN82       0.2627
     14  OD1       61.0860   22.6150    4.0870 O.2    82  ASN82      -0.2716
     15  ND2       59.3710   21.5840    5.2120 N.am   82  ASN82      -0.0877
     16  N         63.4750   23.9750    3.5660 N.3    84  ASN84      -0.1240
     17  CA        63.2260   25.3880    3.7880 C.3    84  ASN84       0.1653
     18  C         63.3310   25.6920    5.2750 C.2    84  ASN84       0.2266
     19  O         62.5470   25.2520    6.0720 O.2    84  ASN84      -0.2867
     20  CB        61.8220   25.6920    3.2650 C.3    84  ASN84       0.1155
     21  CG        61.5340   27.1680    3.3140 C.2    84  ASN84       0.2627
     22  OD1       62.3190   27.9260    3.9220 O.2    84  ASN84      -0.2716
     23  ND2       60.4380   27.5830    2.6550 N.am   84  ASN84      -0.0877
     24  N         60.8830   26.2280    8.1160 N.3    87  TYR87      -0.1241
     25  CA        60.2360   25.1210    8.8080 C.3    87  TYR87       0.1605
     26  C         61.2430   24.3090    9.6240 C.2    87  TYR87       0.2264
     27  O         61.9490   23.4590    9.0850 O.2    87  TYR87      -0.2867
     28  CB        59.5170   24.2040    7.7740 C.3    87  TYR87       0.0534
     29  CG        58.5590   24.9570    6.8880 C.ar   87  TYR87      -0.0201
     30  CD1       58.8110   25.1140    5.5240 C.ar   87  TYR87      -0.0009
     31  CD2       57.3880   25.4890    7.4280 C.ar   87  TYR87      -0.0009
     32  CE1       57.9070   25.7890    4.7010 C.ar   87  TYR87       0.0417
     33  CE2       56.4950   26.2000    6.6270 C.ar   87  TYR87       0.0417
     34  CZ        56.7550   26.3310    5.2640 C.ar   87  TYR87       0.1957
     35  OH        55.8370   26.9940    4.4860 O.3    87  TYR87      -0.2866
     36  N         49.1470   25.9040   14.9250 N.2   102  PRO102     -0.2584
     37  CA        49.4940   25.0770   13.7390 C.3   102  PRO102      0.1895
     38  C         50.9300   24.9510   13.2350 C.2   102  PRO102      0.2359
     39  O         51.1770   25.4380   12.1240 O.2   102  PRO102     -0.2858
     40  CB        48.6150   25.5300   12.5510 C.2   102  PRO102      0.0071
     41  CG        47.8000   26.7130   13.0450 C.2   102  PRO102      0.0180
     42  CD        48.1140   26.9220   14.5290 C.2   102  PRO102      0.0937
     43  N         54.1930   23.4740   11.3550 N.3   104  TRP104     -0.1241
     44  CA        54.2350   22.6460   10.1570 C.3   104  TRP104      0.1605
     45  C         54.3090   21.1370   10.3790 C.2   104  TRP104      0.2264
     46  O         53.6280   20.3850    9.6930 O.2   104  TRP104     -0.2867
     47  CB        55.3360   23.1240    9.2350 C.3   104  TRP104      0.0550
     48  CG        56.6510   22.5040    9.5620 C.ar  104  TRP104      0.0003
     49  CD1       57.5420   22.9700   10.4720 C.ar  104  TRP104      0.0946
     50  CD2       57.2290   21.3420    8.9800 C.ar  104  TRP104      0.0152
     51  NE1       58.6800   22.2090   10.4790 N.ar  104  TRP104     -0.2442
     52  CE2       58.5290   21.1930    9.5560 C.ar  104  TRP104      0.0810
     53  CE3       56.8090   20.4180    7.9990 C.ar  104  TRP104      0.0012
     54  CZ2       59.3840   20.1180    9.1950 C.ar  104  TRP104      0.0191
     55  CZ3       57.6580   19.3860    7.6380 C.ar  104  TRP104      0.0001
     56  CH2       58.9280   19.2230    8.2340 C.ar  104  TRP104      0.0015
     57  N         51.1840   18.7870   10.4870 N.3   107  TYR107     -0.1241
     58  CA        50.4680   18.2900    9.3190 C.3   107  TYR107      0.1605
     59  C         51.0440   16.9220    8.9550 C.2   107  TYR107      0.2264
     60  O         50.3280   15.9860    8.5670 O.2   107  TYR107     -0.2867
     61  CB        50.5870   19.2270    8.0850 C.3   107  TYR107      0.0534
     62  CG        49.8630   20.5730    8.2580 C.ar  107  TYR107     -0.0201
     63  CD1       48.4850   20.6300    8.0050 C.ar  107  TYR107     -0.0009
     64  CD2       50.5310   21.7470    8.6470 C.ar  107  TYR107     -0.0009
     65  CE1       47.7910   21.8440    8.1170 C.ar  107  TYR107      0.0417
     66  CE2       49.8650   22.9730    8.7700 C.ar  107  TYR107      0.0417
     67  CZ        48.4900   22.9970    8.4970 C.ar  107  TYR107      0.1957
     68  OH        47.7840   24.1740    8.5840 O.3   107  TYR107     -0.2866
     69  N         61.6890   16.9480    4.0580 N.3   131  VAL131     -0.1245
     70  CA        60.5560   17.5100    3.3290 C.3   131  VAL131      0.1561
     71  C         60.8970   18.6810    2.3980 C.2   131  VAL131      0.2260
     72  O         61.5740   19.6260    2.7910 O.2   131  VAL131     -0.2867
     73  CB        59.4130   17.9190    4.2890 C.3   131  VAL131      0.0252
     74  CG1       58.2010   18.4000    3.4790 C.3   131  VAL131      0.0019
     75  CG2       59.0210   16.7890    5.2820 C.3   131  VAL131      0.0019
     76  N         58.5760   21.0300   -0.2670 N.3   133  GLY133     -0.1225
     77  CA        57.3110   21.2620   -0.9780 C.3   133  GLY133      0.1811
     78  C         57.4890   22.4810   -1.8520 C.2   133  GLY133      0.2280
     79  O         58.1060   23.4560   -1.4210 O.2   133  GLY133     -0.2866
     80  N         54.7200   23.9890   -3.4740 N.3   135  ILE135     -0.1231
     81  CA        53.4110   24.6060   -3.7000 C.3   135  ILE135      0.1678
     82  C         53.4050   25.8680   -2.8620 C.2   135  ILE135      0.2434
     83  O         53.7660   25.8110   -1.6900 O.2   135  ILE135     -0.2733
     84  CB        52.3200   23.7280   -3.0740 C.3   135  ILE135      0.0265
     85  CG1       52.3400   22.3100   -3.6830 C.3   135  ILE135      0.0019
     86  CG2       50.9380   24.3760   -3.2490 C.3   135  ILE135      0.0020
     87  CD1       51.5410   21.2600   -2.8780 C.3   135  ILE135      0.0001
     88  N         53.0220   27.0240   -3.3680 N.am  136  PRO136     -0.2718
     89  CA        53.0150   28.2340   -2.5250 C.3   136  PRO136      0.1520
     90  C         52.1060   27.9710   -1.3480 C.2   136  PRO136      0.2440
     91  O         50.9560   27.5910   -1.5490 O.2   136  PRO136     -0.2731
     92  CB        52.3650   29.3100   -3.3980 C.3   136  PRO136      0.0310
     93  CG        52.3830   28.7840   -4.8110 C.3   136  PRO136      0.0237
     94  CD        52.5660   27.2730   -4.7510 C.3   136  PRO136      0.0939
     95  N         52.5800   28.1370   -0.1120 N.am  137  PRO137     -0.2716
     96  CA        51.7400   27.7990    1.0490 C.3   137  PRO137      0.1536
     97  C         50.6220   28.8010    1.3150 C.2   137  PRO137      0.2599
     98  O         50.7530   29.9800    0.9190 O.2   137  PRO137     -0.2715
     99  CB        52.6730   27.7900    2.2730 C.3   137  PRO137      0.0310
    100  CG        53.8650   28.6380    1.8540 C.3   137  PRO137      0.0237
    101  CD        53.9230   28.6000    0.3270 C.3   137  PRO137      0.0939
    102  N         49.5510   28.3070    1.9970 N.am  138  SER138     -0.1936
    103  CA        48.3990   29.1100    2.4110 C.3   138  SER138      0.2055
    104  C         47.8510   29.9470    1.2630 C.2   138  SER138      0.2644
    105  O         47.5040   31.1360    1.4570 O.2   138  SER138     -0.2714
    106  CB        48.9310   30.0740    3.4760 C.3   138  SER138      0.2130
    107  OG        49.2060   29.3290    4.6360 O.3   138  SER138     -0.2179
    108  N         47.8150   29.3320    0.0650 N.am  139  SER139     -0.1935
    109  CA        47.3840   30.0180   -1.1570 C.3   139  SER139      0.2055
    110  C         46.2250   29.3500   -1.9280 C.2   139  SER139      0.2644
    111  O         45.9400   29.7120   -3.0640 O.2   139  SER139     -0.2714
    112  CB        48.5620   30.4240   -2.0670 C.3   139  SER139      0.2130
    113  OG        49.4980   31.2420   -1.3680 O.3   139  SER139     -0.2179
    114  N         45.5610   28.3750   -1.2860 N.am  140  GLY140     -0.1939
    115  CA        44.3960   27.7190   -1.8430 C.3   140  GLY140      0.2014
    116  C         44.7230   26.6160   -2.8170 C.2   140  GLY140      0.2639
    117  O         43.8170   26.1260   -3.5000 O.2   140  GLY140     -0.2714
    118  N         46.0200   26.2540   -2.8820 N.am  141  LEU141     -0.1963
    119  CA        46.4410   25.1700   -3.7620 C.3   141  LEU141      0.1728
    120  C         46.6480   23.8680   -2.9920 C.2   141  LEU141      0.2617
    121  O         47.2870   22.9590   -3.5340 O.2   141  LEU141     -0.2715
    122  CB        47.6890   25.4450   -4.6190 C.3   141  LEU141      0.0311
    123  CG        47.5320   26.7030   -5.5040 C.3   141  LEU141      0.0022
    124  CD1       48.8040   26.8690   -6.3210 C.3   141  LEU141      0.0001
    125  CD2       46.2940   26.6540   -6.4370 C.3   141  LEU141      0.0001
    126  N         46.1290   23.7830   -1.7510 N.am  142  SER142     -0.1936
    127  CA        46.1890   22.5710   -0.9080 C.3   142  SER142      0.2055
    128  C         47.5840   22.0970   -0.4890 C.2   142  SER142      0.2644
    129  O         47.8620   20.8910   -0.4630 O.2   142  SER142     -0.2714
    130  CB        45.4310   21.4180   -1.5690 C.3   142  SER142      0.2130
    131  OG        44.1820   21.9450   -2.0060 O.3   142  SER142     -0.2179
    132  N         48.4750   23.0430   -0.1710 N.am  143  SER143     -0.1935
    133  CA        49.7790   22.6530    0.3000 C.3   143  SER143      0.2055
    134  C         49.6310   21.8360    1.6050 C.2   143  SER143      0.2643
    135  O         50.3910   20.8890    1.8800 O.2   143  SER143     -0.2714
    136  CB        50.6900   23.8640    0.5270 C.3   143  SER143      0.2130
    137  OG        50.3240   24.6070    1.6620 O.3   143  SER143     -0.2179
    138  N         48.6580   22.1910    2.4440 N.am  144  SER144     -0.1949
    139  CA        48.4780   21.4570    3.6740 C.3   144  SER144      0.1924
    140  C         48.1360   19.9890    3.3730 C.2   144  SER144      0.2314
    141  O         48.6600   19.0450    4.0170 O.2   144  SER144     -0.2863
    142  CB        47.4200   22.1060    4.5500 C.3   144  SER144      0.2116
    143  OG        46.1240   21.9280    4.0570 O.3   144  SER144     -0.2180
    144  N         50.9030   17.8290    2.0370 N.3   147  LEU147     -0.1245
    145  CA        51.7980   17.3990    3.1060 C.3   147  LEU147      0.1561
    146  C         51.1790   16.2580    3.8790 C.2   147  LEU147      0.2260
    147  O         51.8360   15.2530    4.1340 O.2   147  LEU147     -0.2867
    148  CB        52.1540   18.6020    3.9970 C.3   147  LEU147      0.0270
    149  CG        53.0640   18.3340    5.2000 C.3   147  LEU147      0.0019
    150  CD1       54.3550   17.6030    4.7880 C.3   147  LEU147      0.0001
    151  CD2       53.4360   19.7010    5.8180 C.3   147  LEU147      0.0001
    152  N         40.6050   17.8410   -1.4380 N.3   187  ASP187     -0.1239
    153  CA        42.0160   17.9940   -1.6250 C.3   187  ASP187      0.1674
    154  C         42.8040   16.7280   -1.5950 C.2   187  ASP187      0.2266
    155  O         43.7390   16.5590   -2.4170 O.2   187  ASP187     -0.2867
    156  CB        42.5810   19.0640   -0.6710 C.3   187  ASP187      0.1410
    157  CG        41.8970   20.4100   -0.8130 C.2   187  ASP187      0.3668
    158  OD1       41.0710   20.6650   -1.6560 O.co2 187  ASP187     -0.2456
    159  OD2       42.2890   21.2630    0.0830 O.co2 187  ASP187     -0.2456
    160  N         46.6000   33.0350    3.5140 N.3   229  MET229     -0.1230
    161  CA        45.5000   32.7180    4.3960 C.3   229  MET229      0.1702
    162  C         45.7340   31.2950    4.9600 C.2   229  MET229      0.2592
    163  O         45.6660   30.3060    4.2050 O.2   229  MET229     -0.2718
    164  CB        44.1080   32.8920    3.7610 C.3   229  MET229      0.0401
    165  CG        42.9690   32.6560    4.7480 C.3   229  MET229      0.0596
    166  SD        43.0200   33.6800    6.2580 S.3   229  MET229     -0.1393
    167  CE        42.9970   35.3580    5.5540 C.3   229  MET229      0.0692
    168  N         46.0450   31.1950    6.2810 N.am  230  ASN230     -0.1960
    169  CA        46.3130   29.8820    6.8810 C.3   230  ASN230      0.1819
    170  C         45.0240   29.3830    7.4710 C.2   230  ASN230      0.2621
    171  O         44.5580   29.8940    8.4900 O.2   230  ASN230     -0.2715
    172  CB        47.4340   29.9280    7.9630 C.3   230  ASN230      0.1195
    173  CG        47.8140   28.5600    8.5760 C.2   230  ASN230      0.2630
    174  OD1       48.7890   28.4710    9.3270 O.2   230  ASN230     -0.2716
    175  ND2       47.0850   27.4790    8.2830 N.am  230  ASN230     -0.0877
    176  N         44.4460   28.3800    6.8120 N.am  231  LYS231     -0.1963
    177  CA        43.1460   27.8810    7.2370 C.3   231  LYS231      0.1728
    178  C         43.0780   27.4240    8.6670 C.2   231  LYS231      0.2616
    179  O         42.0960   27.6630    9.3530 O.2   231  LYS231     -0.2715
    180  CB        42.5210   26.8510    6.2810 C.3   231  LYS231      0.0311
    181  CG        41.8170   27.4230    5.0610 C.3   231  LYS231      0.0038
    182  CD        42.7040   28.3380    4.2130 C.3   231  LYS231      0.0206
    183  CE        43.6690   27.6190    3.2960 C.3   231  LYS231      0.1093
    184  NZ        44.3390   28.5100    2.3140 N.3   231  LYS231     -0.1314
    185  N         44.1080   26.7360    9.1070 N.am  232  ALA232     -0.1977
    186  CA        44.1230   26.2190   10.4800 C.3   232  ALA232      0.1597
    187  C         44.3670   27.3040   11.5480 C.2   232  ALA232      0.2287
    188  O         44.0260   27.1440   12.7280 O.2   232  ALA232     -0.2864
    189  CB        45.1970   25.1450   10.6320 C.3   232  ALA232      0.0319
@<TRIPOS>BOND
     1   125   123    1
     2   124   123    1
     3   123   122    1
     4    93    94    1
     5    93    92    1
     6    94    88    1
     7   122   119    1
     8   119   120    1
     9   119   118    1
    10    81    80    1
    11    81    84    1
    12    81    82    1
    13    85    84    1
    14    85    87    1
    15   121   120    2
    16   117   116    2
    17    92    89    1
    18    88    82   am
    19    88    89    1
    20    86    84    1
    21   111   110    2
    22   120   126   am
    23   118   116   am
    24    82    83    2
    25   116   115    1
    26     1     2    1
    27    89    90    1
    28   155   154    2
    29     4     3    2
    30   112   113    1
    31   112   109    1
    32   131   130    1
    33   110   114   am
    34   110   109    1
    35    78    79    2
    36    78    77    1
    37   115   114    1
    38     3     2    1
    39   126   127    1
    40   158   157   ar
    41   153   154    1
    42   153   152    1
    43   153   156    1
    44   130   127    1
    45    91    90    2
    46     2     5    1
    47    90    95   am
    48   109   108    1
    49    77    76    1
    50   127   128    1
    51   157   156    1
    52   157   159   ar
    53   128   129    2
    54   128   132   am
    55     5     7    1
    56     5     6    1
    57   132   133    1
    58    95   101    1
    59    95    96    1
    60   108   104   am
    61   133   136    1
    62   133   134    1
    63   101   100    1
    64   136   137    1
    65    98    97    2
    66    96    97    1
    67    96    99    1
    68   104   105    2
    69   104   103    1
    70    97   102   am
    71   134   135    2
    72   134   138   am
    73   100    99    1
    74   102   103    1
    75   144   145    1
    76   184   183    1
    77    71    72    2
    78    71    70    1
    79   103   106    1
    80   138   139    1
    81    23    21   am
    82   145   146    1
    83   145   148    1
    84    20    21    1
    85    20    17    1
    86   183   182    1
    87    21    22    2
    88    70    69    1
    89    70    73    1
    90   140   139    1
    91   140   141    2
    92   106   107    1
    93    74    73    1
    94   160   161    1
    95    16    17    1
    96   139   142    1
    97   164   161    1
    98   164   165    1
    99    17    18    1
   100   146   147    2
   101   148   149    1
   102   143   142    1
   103    14    13    2
   104   163   162    2
   105   182   181    1
   106    73    75    1
   107   161   162    1
   108    35    34    1
   109    32    34   ar
   110    32    30   ar
   111   165   166    1
   112   150   149    1
   113   162   168   am
   114    10    11    2
   115    10     9    1
   116   181   180    1
   117    13    15   am
   118    13    12    1
   119   149   151    1
   120    34    33   ar
   121    18    19    2
   122    30    29   ar
   123   167   166    1
   124     9    12    1
   125     9     8    1
   126   180   177    1
   127   168   169    1
   128    33    31   ar
   129   176   177    1
   130   176   170   am
   131   169   170    1
   132   169   172    1
   133    29    31   ar
   134    29    28    1
   135   177   178    1
   136   170   171    2
   137    55    53   ar
   138    55    56   ar
   139    28    25    1
   140   172   173    1
   141    53    50   ar
   142    63    65   ar
   143    63    62   ar
   144    61    62    1
   145    61    58    1
   146    24    25    1
   147    65    67   ar
   148    56    54   ar
   149    62    64   ar
   150   175   173   am
   151    67    68    1
   152    67    66   ar
   153    60    59    2
   154   173   174    2
   155    64    66   ar
   156   178   185   am
   157   178   179    2
   158    25    26    1
   159    59    58    1
   160    50    52   ar
   161    50    48   ar
   162    27    26    2
   163   185   186    1
   164    54    52   ar
   165    47    48    1
   166    47    44    1
   167    58    57    1
   168    52    51   ar
   169    48    49   ar
   170    46    45    2
   171    44    45    1
   172    44    43    1
   173    49    51   ar
   174   186   189    1
   175   186   187    1
   176   187   188    2
   177    39    38    2
   178    40    41    2
   179    40    37    1
   180    41    42    1
   181    38    37    1
   182    37    36    1
   183    42    36    2
