@<TRIPOS>MOLECULE
tmp/2a2cA00.pdb
 154 144 0 0 0
SMALL
GASTEIGER

@<TRIPOS>ATOM
      1  N         46.7290   21.0330   -5.8410 N.3    42  ARG42      -0.1245
      2  CA        45.6990   20.9980   -6.8590 C.3    42  ARG42       0.1563
      3  C         45.0160   22.3570   -7.0290 C.2    42  ARG42       0.2260
      4  O         45.0520   23.2390   -6.1540 O.2    42  ARG42      -0.2867
      5  CB        44.6130   20.0030   -6.3740 C.3    42  ARG42       0.0307
      6  CG        43.8400   20.4630   -5.1090 C.3    42  ARG42       0.0489
      7  CD        42.4670   21.1160   -5.3760 C.3    42  ARG42       0.2205
      8  NE        41.8980   21.7620   -4.1700 N.pl3  42  ARG42      -0.0865
      9  CZ        42.1030   23.0360   -3.7780 C.cat  42  ARG42       0.5346
     10  NH1       42.8180   23.8750   -4.5060 N.pl3  42  ARG42       0.1354
     11  NH2       41.5510   23.4750   -2.6230 N.pl3  42  ARG42       0.1354
     12  N         33.4280   24.6230   -8.0210 N.3    47  GLY47      -0.1210
     13  CA        32.7880   23.8410   -6.9730 C.3    47  GLY47       0.1956
     14  C         33.4050   24.1570   -5.6400 C.2    47  GLY47       0.2612
     15  O         33.9130   23.2690   -4.9580 O.2    47  GLY47      -0.2717
     16  N         33.3560   25.4390   -5.2920 N.am   48  GLU48      -0.1965
     17  CA        33.9760   25.8860   -4.0650 C.3    48  GLU48       0.1733
     18  C         33.1160   25.8230   -2.8420 C.2    48  GLU48       0.2616
     19  O         31.9910   26.2400   -2.9020 O.2    48  GLU48      -0.2715
     20  CB        34.5320   27.3110   -4.2160 C.3    48  GLU48       0.0429
     21  CG        35.9480   27.4700   -3.6090 C.3    48  GLU48       0.1163
     22  CD        36.9360   26.6660   -4.4270 C.2    48  GLU48       0.3649
     23  OE1       37.3020   27.0060   -5.5530 O.co2  48  GLU48      -0.2457
     24  OE2       37.3710   25.5470   -3.8310 O.co2  48  GLU48      -0.2457
     25  N         33.7000   25.3510   -1.7260 N.am   49  HIS49      -0.1973
     26  CA        33.0530   25.2920   -0.4170 C.3    49  HIS49       0.1656
     27  C         31.8460   24.3590   -0.4000 C.2    49  HIS49       0.2291
     28  O         30.8630   24.5910    0.2920 O.2    49  HIS49      -0.2864
     29  CB        32.7150   26.7060    0.1000 C.3    49  HIS49       0.0771
     30  CG        33.9350   27.3860    0.6680 C.ar   49  HIS49       0.0820
     31  ND1       34.4590   27.0570    1.9120 N.ar   49  HIS49      -0.2267
     32  CD2       34.7400   28.3630    0.1430 C.ar   49  HIS49       0.1154
     33  CE1       35.5370   27.8310    2.1310 C.ar   49  HIS49       0.1986
     34  NE2       35.7400   28.6190    1.0750 N.ar   49  HIS49      -0.2212
     35  N         32.4640   20.5890   -0.9620 N.3    51  ASP51      -0.1225
     36  CA        32.8170   19.2150   -0.6700 C.3    51  ASP51       0.1805
     37  C         32.3590   18.8270    0.7300 C.2    51  ASP51       0.2597
     38  O         31.7870   17.7490    0.9040 O.2    51  ASP51      -0.2718
     39  CB        34.3130   18.9420   -0.8490 C.3    51  ASP51       0.1424
     40  CG        35.2080   19.8490   -0.0010 C.2    51  ASP51       0.3668
     41  OD1       34.7920   20.8660    0.6310 O.co2  51  ASP51      -0.2456
     42  OD2       36.4740   19.3910    0.0090 O.co2  51  ASP51      -0.2456
     43  N         32.6180   19.6840    1.7360 N.am   52  TYR52      -0.1976
     44  CA        32.2030   19.3810    3.0880 C.3    52  TYR52       0.1639
     45  C         30.6870   19.3670    3.2420 C.2    52  TYR52       0.2290
     46  O         30.1520   18.8910    4.2670 O.2    52  TYR52      -0.2864
     47  CB        32.9010   20.2020    4.1680 C.3    52  TYR52       0.0560
     48  CG        32.8180   21.6710    3.9320 C.ar   52  TYR52      -0.0198
     49  CD1       31.6430   22.3780    4.2290 C.ar   52  TYR52      -0.0009
     50  CD2       33.9220   22.3560    3.4040 C.ar   52  TYR52      -0.0009
     51  CE1       31.5600   23.7570    4.0180 C.ar   52  TYR52       0.0417
     52  CE2       33.8680   23.7410    3.2090 C.ar   52  TYR52       0.0417
     53  CZ        32.6880   24.4250    3.5210 C.ar   52  TYR52       0.1957
     54  OH        32.6220   25.7890    3.3320 O.3    52  TYR52      -0.2866
     55  N         45.5610   28.3750   -1.2860 N.3   140  GLY140     -0.1225
     56  CA        44.3960   27.7190   -1.8430 C.3   140  GLY140      0.1811
     57  C         44.7230   26.6160   -2.8170 C.2   140  GLY140      0.2280
     58  O         43.8170   26.1260   -3.5000 O.2   140  GLY140     -0.2866
     59  N         46.1290   23.7830   -1.7510 N.3   142  SER142     -0.1217
     60  CA        46.1890   22.5710   -0.9080 C.3   142  SER142      0.1889
     61  C         47.5840   22.0970   -0.4890 C.2   142  SER142      0.2288
     62  O         47.8620   20.8910   -0.4630 O.2   142  SER142     -0.2866
     63  CB        45.4310   21.4180   -1.5690 C.3   142  SER142      0.2089
     64  OG        44.1820   21.9450   -2.0060 O.3   142  SER142     -0.2183
     65  N         48.6580   22.1910    2.4440 N.3   144  SER144     -0.1202
     66  CA        48.4780   21.4570    3.6740 C.3   144  SER144      0.2020
     67  C         48.1360   19.9890    3.3730 C.2   144  SER144      0.2619
     68  O         48.6600   19.0450    4.0170 O.2   144  SER144     -0.2717
     69  CB        47.4200   22.1060    4.5500 C.3   144  SER144      0.2103
     70  OG        46.1240   21.9280    4.0570 O.3   144  SER144     -0.2182
     71  N         47.2590   19.7660    2.3910 N.am  145  SER145     -0.1951
     72  CA        46.8340   18.3900    2.0620 C.3   145  SER145      0.1924
     73  C         47.9190   17.5890    1.3720 C.2   145  SER145      0.2314
     74  O         48.0850   16.3730    1.5670 O.2   145  SER145     -0.2863
     75  CB        45.5140   18.3440    1.3160 C.3   145  SER145      0.2116
     76  OG        44.5120   18.9850    2.0880 O.3   145  SER145     -0.2180
     77  N         43.4410   14.9490    8.4610 N.3   176  GLU176     -0.1245
     78  CA        43.8360   16.3490    8.3810 C.3   176  GLU176      0.1567
     79  C         43.0410   17.1720    9.3640 C.2   176  GLU176      0.2260
     80  O         43.5010   18.2150    9.8490 O.2   176  GLU176     -0.2867
     81  CB        43.7610   16.9130    6.9580 C.3   176  GLU176      0.0388
     82  CG        44.1370   18.4120    6.9380 C.3   176  GLU176      0.1160
     83  CD        44.5380   18.8000    5.5390 C.2   176  GLU176      0.3649
     84  OE1       44.5230   18.0040    4.5940 O.co2 176  GLU176     -0.2457
     85  OE2       44.9640   20.0490    5.4590 O.co2 176  GLU176     -0.2457
     86  N         40.8870   21.9770   11.2310 N.3   181  THR181     -0.1218
     87  CA        39.9970   22.4260   10.1560 C.3   181  THR181      0.1862
     88  C         38.8960   21.3780    9.9880 C.2   181  THR181      0.2287
     89  O         39.2160   20.1960   10.0700 O.2   181  THR181     -0.2866
     90  CB        40.8040   22.5430    8.8370 C.3   181  THR181      0.1770
     91  OG1       41.5720   21.3500    8.5830 O.3   181  THR181     -0.2211
     92  CG2       41.6100   23.8620    8.8370 C.3   181  THR181      0.0375
     93  N         37.2180   20.6300    7.1930 N.3   183  GLY183     -0.1210
     94  CA        36.9340   20.6250    5.7560 C.3   183  GLY183      0.1956
     95  C         36.4780   19.2920    5.1860 C.2   183  GLY183      0.2612
     96  O         36.1880   18.3320    5.8940 O.2   183  GLY183     -0.2717
     97  N         36.4080   19.2610    3.8600 N.am  184  GLY184     -0.1956
     98  CA        35.9480   18.1070    3.1180 C.3   184  GLY184      0.1869
     99  C         37.0780   17.2470    2.6110 C.2   184  GLY184      0.2309
    100  O         38.2110   17.3450    3.0770 O.2   184  GLY184     -0.2863
    101  N         37.9210   16.9670   -0.7550 N.3   186  MET186     -0.1230
    102  CA        38.3880   17.2200   -2.0910 C.3   186  MET186      0.1702
    103  C         39.8970   17.1450   -2.3050 C.2   186  MET186      0.2592
    104  O         40.4150   16.5550   -3.2700 O.2   186  MET186     -0.2718
    105  CB        37.8860   18.6050   -2.6130 C.3   186  MET186      0.0401
    106  CG        38.6770   19.1170   -3.8250 C.3   186  MET186      0.0596
    107  SD        38.0160   20.6540   -4.5480 S.3   186  MET186     -0.1393
    108  CE        38.1910   21.6690   -3.0300 C.3   186  MET186      0.0692
    109  N         40.6050   17.8410   -1.4380 N.am  187  ASP187     -0.1960
    110  CA        42.0160   17.9940   -1.6250 C.3   187  ASP187      0.1840
    111  C         42.8040   16.7280   -1.5950 C.2   187  ASP187      0.2621
    112  O         43.7390   16.5590   -2.4170 O.2   187  ASP187     -0.2715
    113  CB        42.5810   19.0640   -0.6710 C.3   187  ASP187      0.1450
    114  CG        41.8970   20.4100   -0.8130 C.2   187  ASP187      0.3671
    115  OD1       41.0710   20.6650   -1.6560 O.co2 187  ASP187     -0.2456
    116  OD2       42.2890   21.2630    0.0830 O.co2 187  ASP187     -0.2456
    117  N         42.4360   15.9100   -0.6050 N.am  188  GLN188     -0.1977
    118  CA        43.0940   14.6150   -0.4150 C.3   188  GLN188      0.1601
    119  C         42.7360   13.6300   -1.5420 C.2   188  GLN188      0.2287
    120  O         43.5960   12.8340   -1.9990 O.2   188  GLN188     -0.2864
    121  CB        42.7650   13.9990    0.9700 C.3   188  GLN188      0.0394
    122  CG        43.1470   14.9470    2.1060 C.3   188  GLN188      0.0908
    123  CD        42.0440   15.8690    2.4720 C.2   188  GLN188      0.2608
    124  OE1       41.0120   15.9290    1.8000 O.2   188  GLN188     -0.2717
    125  NE2       42.2840   16.6440    3.5280 N.am  188  GLN188     -0.0878
    126  N         44.4460   28.3800    6.8120 N.3   231  LYS231     -0.1245
    127  CA        43.1460   27.8810    7.2370 C.3   231  LYS231      0.1561
    128  C         43.0780   27.4240    8.6670 C.2   231  LYS231      0.2260
    129  O         42.0960   27.6630    9.3530 O.2   231  LYS231     -0.2867
    130  CB        42.5210   26.8510    6.2810 C.3   231  LYS231      0.0271
    131  CG        41.8170   27.4230    5.0610 C.3   231  LYS231      0.0035
    132  CD        42.7040   28.3380    4.2130 C.3   231  LYS231      0.0206
    133  CE        43.6690   27.6190    3.2960 C.3   231  LYS231      0.1093
    134  NZ        44.3390   28.5100    2.3140 N.3   231  LYS231     -0.1314
    135  N         37.3060   29.6420    7.9490 N.3   237  PHE237     -0.1241
    136  CA        36.8950   28.4120    7.3470 C.3   237  PHE237      0.1605
    137  C         35.8050   27.6870    8.1290 C.2   237  PHE237      0.2264
    138  O         34.7220   27.3650    7.6090 O.2   237  PHE237     -0.2867
    139  CB        38.1250   27.5140    7.0760 C.3   237  PHE237      0.0534
    140  CG        37.7530   26.2950    6.2180 C.ar  237  PHE237     -0.0203
    141  CD1       37.8500   26.3900    4.8290 C.ar  237  PHE237     -0.0042
    142  CD2       37.3340   25.0790    6.7830 C.ar  237  PHE237     -0.0042
    143  CE1       37.5130   25.3180    4.0100 C.ar  237  PHE237     -0.0003
    144  CE2       36.9830   23.9920    5.9750 C.ar  237  PHE237     -0.0003
    145  CZ        37.0640   24.1290    4.5850 C.ar  237  PHE237     -0.0000
    146  N         40.1840   27.2150   -4.1700 N.3   398  GLY398     -0.1210
    147  CA        40.4990   26.8490   -2.8090 C.3   398  GLY398      0.1956
    148  C         39.6280   27.6510   -1.8640 C.2   398  GLY398      0.2611
    149  O         38.6110   28.2260   -2.2540 O.2   398  GLY398     -0.2717
    150  N         40.0040   27.7080   -0.5830 N.am  399  ALA399     -0.1979
    151  CA        39.1510   28.3470    0.3820 C.3   399  ALA399      0.1597
    152  C         38.8640   29.8120    0.2080 C.2   399  ALA399      0.2287
    153  O         37.8250   30.3380    0.6390 O.2   399  ALA399     -0.2864
    154  CB        39.6490   28.0500    1.7820 C.3   399  ALA399      0.0319
@<TRIPOS>BOND
     1    12    13    1
     2     3     2    1
     3     3     4    2
     4    13    14    1
     5     2     5    1
     6     2     1    1
     7     5     6    1
     8    14    16   am
     9    14    15    2
    10    23    22   ar
    11     7     6    1
    12     7     8    1
    13    16    17    1
    14   107   106    1
    15   107   108    1
    16    10     9    1
    17    22    24   ar
    18    22    21    1
    19    20    17    1
    20    20    21    1
    21     8     9    2
    22   146   147    1
    23    17    18    1
    24   106   105    1
    25     9    11    1
    26    58    57    2
    27   104   103    2
    28    19    18    2
    29    18    25   am
    30    57    56    1
    31   147   148    1
    32   105   102    1
    33   112   111    2
    34   103   102    1
    35   103   109   am
    36   149   148    2
    37   102   101    1
    38    64    63    1
    39   120   119    2
    40   148   150   am
    41    56    55    1
    42    59    60    1
    43    25    26    1
    44   115   114   ar
    45   110   111    1
    46   110   109    1
    47   110   113    1
    48   111   117   am
    49    63    60    1
    50   119   118    1
    51    35    36    1
    52    60    61    1
    53    39    36    1
    54    39    40    1
    55   114   113    1
    56   114   116   ar
    57    36    37    1
    58   117   118    1
    59   150   151    1
    60    61    62    2
    61    26    27    1
    62    26    29    1
    63   118   121    1
    64    27    28    2
    65    40    42   ar
    66    40    41   ar
    67    29    30    1
    68    32    30   ar
    69    32    34   ar
    70   152   151    1
    71   152   153    2
    72   151   154    1
    73    30    31   ar
    74    37    38    2
    75    37    43   am
    76   121   122    1
    77    34    33   ar
    78    75    72    1
    79    75    76    1
    80    73    74    2
    81    73    72    1
    82    43    44    1
    83   124   123    2
    84    31    33   ar
    85    72    71    1
    86   122   123    1
    87   134   133    1
    88    71    67   am
    89    65    66    1
    90   123   125   am
    91    99   100    2
    92    99    98    1
    93    44    45    1
    94    44    47    1
    95    98    97    1
    96    52    50   ar
    97    52    53   ar
    98    45    46    2
    99   133   132    1
   100    54    53    1
   101    67    66    1
   102    67    68    2
   103    50    48   ar
   104    53    51   ar
   105    66    69    1
   106    97    95   am
   107    48    47    1
   108    48    49   ar
   109   143   145   ar
   110   143   141   ar
   111    51    49   ar
   112    70    69    1
   113   132   131    1
   114   145   144   ar
   115    84    83   ar
   116   141   140   ar
   117   131   130    1
   118    95    94    1
   119    95    96    2
   120    85    83   ar
   121    83    82    1
   122    94    93    1
   123   144   142   ar
   124   140   142   ar
   125   140   139    1
   126   130   127    1
   127   126   127    1
   128    82    81    1
   129    81    78    1
   130   139   136    1
   131   127   128    1
   132   136   135    1
   133   136   137    1
   134   138   137    2
   135    78    77    1
   136    78    79    1
   137    91    90    1
   138   128   129    2
   139    90    92    1
   140    90    87    1
   141    79    80    2
   142    88    89    2
   143    88    87    1
   144    87    86    1
