@<TRIPOS>MOLECULE
tmp/2a2dA01.pdb
 205 197 0 0 0
SMALL
GASTEIGER

@<TRIPOS>ATOM
      1  N         18.3930   72.0170    5.1990 N.3    42  ARG42      -0.1245
      2  CA        18.9150   72.8530    6.2680 C.3    42  ARG42       0.1563
      3  C         18.0640   74.0650    6.5280 C.2    42  ARG42       0.2260
      4  O         17.2400   74.4770    5.7260 O.2    42  ARG42      -0.2867
      5  CB        20.3120   73.3820    5.9510 C.3    42  ARG42       0.0307
      6  CG        20.3020   74.2380    4.6860 C.3    42  ARG42       0.0489
      7  CD        20.0300   75.7250    4.9460 C.3    42  ARG42       0.2205
      8  NE        20.0170   76.5110    3.7090 N.pl3  42  ARG42      -0.0865
      9  CZ        18.9080   77.0640    3.1700 C.cat  42  ARG42       0.5346
     10  NH1       17.7480   76.9440    3.7500 N.pl3  42  ARG42       0.1354
     11  NH2       18.9440   77.7440    2.0230 N.pl3  42  ARG42       0.1354
     12  N         17.0780   63.7640    1.6880 N.3    66  VAL66      -0.1245
     13  CA        16.9430   63.0200    0.4450 C.3    66  VAL66       0.1561
     14  C         17.6920   61.7260    0.6200 C.2    66  VAL66       0.2260
     15  O         18.8850   61.7320    0.9330 O.2    66  VAL66      -0.2867
     16  CB        17.5260   63.6650   -0.7890 C.3    66  VAL66       0.0252
     17  CG1       17.3990   62.6120   -1.8710 C.3    66  VAL66       0.0019
     18  CG2       16.7260   64.8880   -1.2290 C.3    66  VAL66       0.0019
     19  N         11.5430   57.9020   -8.4000 N.3    82  ASN82      -0.1240
     20  CA        11.2980   58.6430   -7.2000 C.3    82  ASN82       0.1653
     21  C         10.1120   58.0070   -6.5490 C.2    82  ASN82       0.2266
     22  O          9.2160   57.6440   -7.2760 O.2    82  ASN82      -0.2867
     23  CB        10.9740   60.1170   -7.5350 C.3    82  ASN82       0.1155
     24  CG        10.9750   61.0280   -6.3220 C.2    82  ASN82       0.2627
     25  OD1       10.1920   60.8410   -5.3520 O.2    82  ASN82      -0.2716
     26  ND2       11.8740   61.9950   -6.3780 N.am   82  ASN82      -0.0877
     27  N          8.0270   59.4390   -5.0060 N.3    84  ASN84      -0.1240
     28  CA         6.8990   60.3500   -5.2050 C.3    84  ASN84       0.1653
     29  C          6.3500   60.3920   -6.6410 C.2    84  ASN84       0.2266
     30  O          7.0130   60.8590   -7.5610 O.2    84  ASN84      -0.2867
     31  CB         7.3150   61.7900   -4.8360 C.3    84  ASN84       0.1155
     32  CG         6.1030   62.6950   -4.6900 C.2    84  ASN84       0.2627
     33  OD1        5.0830   62.5390   -5.3680 O.2    84  ASN84      -0.2716
     34  ND2        6.1910   63.6460   -3.7730 N.am   84  ASN84      -0.0877
     35  N          7.0530   62.8960   -9.2740 N.3    87  TYR87      -0.1241
     36  CA         8.3320   62.9270   -9.9390 C.3    87  TYR87       0.1605
     37  C          8.5450   61.7310  -10.8460 C.2    87  TYR87       0.2264
     38  O          9.0010   60.6770  -10.4030 O.2    87  TYR87      -0.2867
     39  CB         9.4830   63.0340   -8.9460 C.3    87  TYR87       0.0534
     40  CG         9.3810   64.2500   -8.0980 C.ar   87  TYR87      -0.0201
     41  CD1        9.0670   64.1160   -6.7460 C.ar   87  TYR87      -0.0009
     42  CD2        9.5930   65.5280   -8.6160 C.ar   87  TYR87      -0.0009
     43  CE1        8.9460   65.2370   -5.9310 C.ar   87  TYR87       0.0417
     44  CE2        9.4990   66.6640   -7.8070 C.ar   87  TYR87       0.0417
     45  CZ         9.1760   66.5110   -6.4630 C.ar   87  TYR87       0.1957
     46  OH         9.0760   67.6440   -5.7010 O.3    87  TYR87      -0.2866
     47  N         13.4480   72.8490  -15.1320 N.2   104  PRO104     -0.2584
     48  CA        14.1640   72.0840  -14.1560 C.3   104  PRO104      0.1895
     49  C         13.2360   71.0360  -13.5870 C.2   104  PRO104      0.2359
     50  O         12.4440   71.2210  -12.6540 O.2   104  PRO104     -0.2858
     51  CB        14.6060   73.0520  -13.0570 C.2   104  PRO104      0.0071
     52  CG        14.1810   74.4520  -13.4950 C.2   104  PRO104      0.0180
     53  CD        13.3440   74.2860  -14.7550 C.2   104  PRO104      0.0937
     54  N         12.9880   67.6560  -11.8460 N.3   106  TRP106     -0.1241
     55  CA        13.6590   67.1610  -10.6790 C.3   106  TRP106      0.1605
     56  C         14.9500   66.4080  -10.9570 C.2   106  TRP106      0.2264
     57  O         15.9390   66.5990  -10.2300 O.2   106  TRP106     -0.2867
     58  CB        12.6800   66.2950   -9.8980 C.3   106  TRP106      0.0550
     59  CG        12.5170   64.9230  -10.4780 C.ar  106  TRP106      0.0003
     60  CD1       11.6430   64.5200  -11.4380 C.ar  106  TRP106      0.0946
     61  CD2       13.2070   63.7510  -10.0600 C.ar  106  TRP106      0.0152
     62  NE1       11.7320   63.1640  -11.6570 N.ar  106  TRP106     -0.2442
     63  CE2       12.6860   62.6610  -10.8090 C.ar  106  TRP106      0.0810
     64  CE3       14.2200   63.5300   -9.1300 C.ar  106  TRP106      0.0012
     65  CZ2       13.1510   61.3580  -10.6420 C.ar  106  TRP106      0.0191
     66  CZ3       14.6830   62.2550   -8.9880 C.ar  106  TRP106      0.0001
     67  CH2       14.1470   61.1930   -9.6980 C.ar  106  TRP106      0.0015
     68  N         18.5290   67.8810  -11.1340 N.3   109  TYR109     -0.1241
     69  CA        19.3060   68.1730   -9.9250 C.3   109  TYR109      0.1605
     70  C         20.1410   66.9470   -9.6070 C.2   109  TYR109      0.2264
     71  O         21.2920   66.9890   -9.1640 O.2   109  TYR109     -0.2867
     72  CB        18.3850   68.5220   -8.7560 C.3   109  TYR109      0.0534
     73  CG        17.6370   69.8290   -8.9190 C.ar  109  TYR109     -0.0201
     74  CD1       18.2840   71.0480   -8.7020 C.ar  109  TYR109     -0.0009
     75  CD2       16.2820   69.8530   -9.2510 C.ar  109  TYR109     -0.0009
     76  CE1       17.6060   72.2660   -8.7790 C.ar  109  TYR109      0.0417
     77  CE2       15.5960   71.0680   -9.3470 C.ar  109  TYR109      0.0417
     78  CZ        16.2560   72.2790   -9.1310 C.ar  109  TYR109      0.1957
     79  OH        15.5760   73.4820   -9.2120 O.3   109  TYR109     -0.2866
     80  N         14.8500   57.5510   -5.6010 N.3   133  VAL133     -0.1245
     81  CA        14.9030   58.7450   -4.7900 C.3   133  VAL133      0.1561
     82  C         13.7280   58.8790   -3.7940 C.2   133  VAL133      0.2260
     83  O         12.5640   58.6020   -4.0870 O.2   133  VAL133     -0.2867
     84  CB        15.0750   59.9530   -5.6990 C.3   133  VAL133      0.0252
     85  CG1       15.3390   61.2070   -4.8330 C.3   133  VAL133      0.0019
     86  CG2       16.3110   59.7060   -6.5700 C.3   133  VAL133      0.0019
     87  N         12.8350   61.7830   -0.8280 N.3   135  GLY135     -0.1225
     88  CA        13.0250   62.9830   -0.0280 C.3   135  GLY135      0.1811
     89  C         11.8130   63.3390    0.8500 C.2   135  GLY135      0.2280
     90  O         10.6350   63.1890    0.4850 O.2   135  GLY135     -0.2866
     91  N         11.9440   66.4550    2.5500 N.3   137  ILE137     -0.1231
     92  CA        12.0220   67.8750    2.7350 C.3   137  ILE137      0.1681
     93  C         10.9510   68.5450    1.8860 C.2   137  ILE137      0.2471
     94  O         10.8510   68.2710    0.6970 O.2   137  ILE137     -0.2730
     95  CB        13.3620   68.4350    2.2670 C.3   137  ILE137      0.0265
     96  CG1       14.5690   67.8220    2.9380 C.3   137  ILE137      0.0019
     97  CG2       13.4090   69.9410    2.4560 C.3   137  ILE137      0.0020
     98  CD1       15.6950   67.7210    1.9040 C.3   137  ILE137      0.0001
     99  N         10.1400   69.4280    2.4730 N.am  138  PRO138     -0.2493
    100  CA         9.1400   70.1510    1.6830 C.3   138  PRO138      0.1604
    101  C          9.8410   70.8800    0.5420 C.2   138  PRO138      0.2447
    102  O         10.7590   71.6790    0.7730 O.2   138  PRO138     -0.2731
    103  CB         8.4970   71.1910    2.6110 C.3   138  PRO138      0.0569
    104  CG         8.9880   70.8750    4.0290 C.2   138  PRO138     -0.0077
    105  CD        10.0340   69.7640    3.9260 C.2   138  PRO138      0.0634
    106  N          9.3870   70.5760   -0.6830 N.am  139  PRO139     -0.2716
    107  CA         9.9390   71.0990   -1.9090 C.3   139  PRO139      0.1536
    108  C          9.6970   72.5900   -2.1460 C.2   139  PRO139      0.2599
    109  O          8.5990   73.0930   -1.8990 O.2   139  PRO139     -0.2715
    110  CB         9.3080   70.2650   -3.0450 C.3   139  PRO139      0.0310
    111  CG         8.0150   69.6990   -2.4750 C.3   139  PRO139      0.0237
    112  CD         8.1600   69.7780   -0.9550 C.3   139  PRO139      0.0939
    113  N         10.7540   73.2600   -2.6720 N.am  140  SER140     -0.1936
    114  CA        10.7270   74.6690   -3.0040 C.3   140  SER140      0.2055
    115  C         10.1520   75.4520   -1.8530 C.2   140  SER140      0.2644
    116  O          9.2820   76.3120   -1.9760 O.2   140  SER140     -0.2714
    117  CB        10.0040   74.9810   -4.3310 C.3   140  SER140      0.2130
    118  OG         9.4340   73.8120   -4.8790 O.3   140  SER140     -0.2179
    119  N         10.6670   75.1490   -0.6980 N.am  141  SER141     -0.1935
    120  CA        10.1680   75.8340    0.4410 C.3   141  SER141      0.2055
    121  C         11.2310   76.5130    1.3160 C.2   141  SER141      0.2644
    122  O         10.9410   76.8740    2.4530 O.2   141  SER141     -0.2714
    123  CB         9.2550   74.8990    1.1810 C.3   141  SER141      0.2130
    124  OG         8.0290   74.9190    0.4880 O.3   141  SER141     -0.2179
    125  N         12.4440   76.7480    0.8010 N.am  142  GLY142     -0.1939
    126  CA        13.4420   77.4560    1.5870 C.3   142  GLY142      0.2014
    127  C         14.3270   76.5450    2.3910 C.2   142  GLY142      0.2639
    128  O         15.1940   77.0170    3.1420 O.2   142  GLY142     -0.2714
    129  N         14.1230   75.2330    2.2260 N.am  143  LEU143     -0.1963
    130  CA        14.9070   74.2960    3.0160 C.3   143  LEU143      0.1728
    131  C         16.0220   73.5500    2.3020 C.2   143  LEU143      0.2617
    132  O         16.6610   72.6800    2.8780 O.2   143  LEU143     -0.2715
    133  CB        14.0500   73.3620    3.8770 C.3   143  LEU143      0.0311
    134  CG        12.9970   74.0690    4.7320 C.3   143  LEU143      0.0022
    135  CD1       11.9160   73.0720    5.1340 C.3   143  LEU143      0.0001
    136  CD2       13.6560   74.5820    5.9900 C.3   143  LEU143      0.0001
    137  N         16.2650   73.8960    1.0460 N.am  144  SER144     -0.1936
    138  CA        17.3560   73.3320    0.2820 C.3   144  SER144      0.2055
    139  C         17.1950   71.8910   -0.1400 C.2   144  SER144      0.2644
    140  O         18.1360   71.1240   -0.1980 O.2   144  SER144     -0.2714
    141  CB        18.6990   73.5580    0.9180 C.3   144  SER144      0.2130
    142  OG        18.9020   74.9420    1.0080 O.3   144  SER144     -0.2179
    143  N         15.9880   71.5510   -0.4600 N.am  145  SER145     -0.1935
    144  CA        15.6850   70.2560   -0.9380 C.3   145  SER145      0.2055
    145  C         16.4650   70.0930   -2.2560 C.2   145  SER145      0.2643
    146  O         16.9180   68.9890   -2.6020 O.2   145  SER145     -0.2714
    147  CB        14.1650   70.1390   -1.0880 C.3   145  SER145      0.2130
    148  OG        13.7270   71.1880   -1.9280 O.3   145  SER145     -0.2179
    149  N         16.6470   71.2090   -2.9830 N.am  146  SER146     -0.1949
    150  CA        17.3930   71.1220   -4.2140 C.3   146  SER146      0.1924
    151  C         18.8200   70.7320   -3.9160 C.2   146  SER146      0.2314
    152  O         19.4020   69.8900   -4.5960 O.2   146  SER146     -0.2863
    153  CB        17.3480   72.3450   -5.1080 C.3   146  SER146      0.2116
    154  OG        18.1700   73.3780   -4.6000 O.3   146  SER146     -0.2180
    155  N         19.2180   67.0820   -2.8040 N.3   149  LEU149     -0.1245
    156  CA        19.2060   66.1570   -3.9390 C.3   149  LEU149      0.1561
    157  C         20.5370   66.2050   -4.6690 C.2   149  LEU149      0.2260
    158  O         21.1390   65.1870   -5.0630 O.2   149  LEU149     -0.2867
    159  CB        18.0350   66.5130   -4.8490 C.3   149  LEU149      0.0270
    160  CG        17.9550   65.8240   -6.1910 C.3   149  LEU149      0.0019
    161  CD1       18.0540   64.3200   -6.0130 C.3   149  LEU149      0.0001
    162  CD2       16.6210   66.2050   -6.8270 C.3   149  LEU149      0.0001
    163  N         24.1390   75.9880    1.3320 N.3   189  ASP189     -0.1239
    164  CA        23.3420   74.8050    1.3760 C.3   189  ASP189      0.1674
    165  C         24.0470   73.4150    1.3160 C.2   189  ASP189      0.2266
    166  O         23.7200   72.4460    2.0030 O.2   189  ASP189     -0.2867
    167  CB        22.1640   74.9470    0.4070 C.3   189  ASP189      0.1410
    168  CG        21.3540   76.2150    0.5600 C.2   189  ASP189      0.3668
    169  OD1       21.6250   77.0600    1.3730 O.co2 189  ASP189     -0.2456
    170  OD2       20.3380   76.2980   -0.2930 O.co2 189  ASP189     -0.2456
    171  N          8.2450   78.5690   -3.7390 N.3   231  MET231     -0.1230
    172  CA         9.1930   79.3070   -4.5590 C.3   231  MET231      0.1702
    173  C         10.2220   78.4070   -5.2980 C.2   231  MET231      0.2592
    174  O         11.1760   77.8440   -4.7290 O.2   231  MET231     -0.2718
    175  CB         9.8620   80.5350   -3.9090 C.3   231  MET231      0.0401
    176  CG        10.6390   81.3610   -4.9450 C.3   231  MET231      0.0596
    177  SD        12.4330   81.5410   -4.6490 S.3   231  MET231     -0.1393
    178  CE        12.9340   82.5580   -6.0670 C.3   231  MET231      0.0692
    179  N         10.0790   78.2570   -6.6040 N.am  232  ASN232     -0.1960
    180  CA        11.1070   77.4690   -7.2720 C.3   232  ASN232      0.1819
    181  C         12.1390   78.4000   -7.9110 C.2   232  ASN232      0.2624
    182  O         11.8340   79.0290   -8.9400 O.2   232  ASN232     -0.2715
    183  CB        10.6410   76.3180   -8.1870 C.3   232  ASN232      0.1195
    184  CG        11.7770   75.3530   -8.4820 C.2   232  ASN232      0.2630
    185  OD1       11.7320   74.5700   -9.4360 O.2   232  ASN232     -0.2716
    186  ND2       12.8100   75.4060   -7.6740 N.am  232  ASN232     -0.0877
    187  N         13.3100   78.4900   -7.2050 N.am  233  LYS233     -0.1918
    188  CA        14.5010   79.3160   -7.4920 C.3   233  LYS233      0.1944
    189  C         14.9500   79.2250   -8.9730 C.2   233  LYS233      0.2658
    190  O         15.2080   80.2390   -9.6660 O.2   233  LYS233     -0.2711
    191  CB        15.7020   79.1210   -6.5220 C.2   233  LYS233     -0.0002
    192  CG        15.5130   78.9010   -5.0070 C.2   233  LYS233     -0.0270
    193  CD        14.0980   78.8160   -4.4410 C.3   233  LYS233      0.0462
    194  CE        13.9240   77.7920   -3.3110 C.3   233  LYS233      0.1140
    195  NZ        12.9150   78.0920   -2.2430 N.3   233  LYS233     -0.1310
    196  N         15.0160   77.9710   -9.4580 N.am  234  ALA234     -0.1974
    197  CA        15.4110   77.6480  -10.8290 C.3   234  ALA234      0.1597
    198  C         14.3850   78.0660  -11.8900 C.2   234  ALA234      0.2287
    199  O         14.7360   78.3210  -13.0580 O.2   234  ALA234     -0.2864
    200  CB        15.7700   76.1800  -10.9620 C.3   234  ALA234      0.0319
    201  N         16.0090   81.3290    0.3730 N.3   401  ALA401     -0.1245
    202  CA        15.8910   82.3930   -0.6220 C.3   401  ALA401      0.1562
    203  C         14.8300   83.4510   -0.3840 C.2   401  ALA401      0.2260
    204  O         15.0740   84.6290   -0.6440 O.2   401  ALA401     -0.2867
    205  CB        15.7850   81.8580   -2.0260 C.3   401  ALA401      0.0290
@<TRIPOS>BOND
     1    47    53    2
     2    47    48    1
     3    53    52    1
     4    48    49    1
     5    48    51    1
     6    49    50    2
     7    52    51    2
     8   199   198    2
     9   198   197    1
    10    54    55    1
    11    62    60   ar
    12    62    63   ar
    13    60    59   ar
    14    68    69    1
    15   200   197    1
    16    56    55    1
    17    56    57    2
    18    37    38    2
    19    37    36    1
    20   197   196    1
    21    63    65   ar
    22    63    61   ar
    23    55    58    1
    24    65    67   ar
    25    59    61   ar
    26    59    58    1
    27    61    64   ar
    28    36    35    1
    29    36    39    1
    30    69    70    1
    31    69    72    1
    32    67    66   ar
    33   190   189    2
    34    70    71    2
    35   196   189   am
    36   185   184    2
    37    77    75   ar
    38    77    78   ar
    39    75    73   ar
    40    79    78    1
    41    78    76   ar
    42    64    66   ar
    43   189   188    1
    44    39    40    1
    45   182   181    2
    46    73    72    1
    47    73    74   ar
    48    76    74   ar
    49    42    40   ar
    50    42    44   ar
    51   184   183    1
    52   184   186   am
    53    19    20    1
    54   183   180    1
    55    40    41   ar
    56   181   180    1
    57   181   187   am
    58    44    45   ar
    59    30    29    2
    60    23    20    1
    61    23    24    1
    62   188   187    1
    63   188   191    1
    64    22    21    2
    65   180   179    1
    66    20    21    1
    67   162   160    1
    68    41    43   ar
    69    29    28    1
    70   179   173   am
    71    86    84    1
    72   191   192    2
    73    45    43   ar
    74    45    46    1
    75    26    24   am
    76    24    25    2
    77   160   161    1
    78   160   159    1
    79   178   177    1
    80    84    85    1
    81    84    81    1
    82    80    81    1
    83    33    32    2
    84   173   174    2
    85   173   172    1
    86    28    27    1
    87    28    31    1
    88   153   154    1
    89   153   150    1
    90   158   157    2
    91   192   193    1
    92   176   177    1
    93   176   175    1
    94   118   117    1
    95   159   156    1
    96    31    32    1
    97    81    82    1
    98    32    34   am
    99   157   156    1
   100   152   151    2
   101   172   175    1
   102   172   171    1
   103   193   194    1
   104   117   114    1
   105   150   151    1
   106   150   149    1
   107    83    82    2
   108   156   155    1
   109   194   195    1
   110   110   111    1
   111   110   107    1
   112   114   113    1
   113   114   115    1
   114   149   145   am
   115   113   108   am
   116   146   145    2
   117   111   112    1
   118   145   144    1
   119   108   107    1
   120   108   109    2
   121   205   202    1
   122   116   115    2
   123   148   147    1
   124   107   106    1
   125    17    16    1
   126   115   119   am
   127    18    16    1
   128   147   144    1
   129   112   106    1
   130   144   143    1
   131    87    88    1
   132    16    13    1
   133   119   120    1
   134   106   101   am
   135   204   203    2
   136   202   203    1
   137   202   201    1
   138   143   139   am
   139   170   168   ar
   140   140   139    2
   141   139   138    1
   142    88    89    1
   143   138   141    1
   144   138   137    1
   145   167   168    1
   146   167   164    1
   147   120   123    1
   148   120   121    1
   149    13    14    1
   150    13    12    1
   151    90    89    2
   152   124   123    1
   153   101   102    2
   154   101   100    1
   155   168   169   ar
   156    14    15    2
   157    94    93    2
   158   125   121   am
   159   125   126    1
   160   141   142    1
   161   137   131   am
   162   121   122    2
   163   165   164    1
   164   165   166    2
   165   163   164    1
   166   126   127    1
   167   100    99    1
   168   100   103    1
   169    93    99   am
   170    93    92    1
   171    98    96    1
   172    11     9    1
   173   129   127   am
   174   129   130    1
   175    95    97    1
   176    95    92    1
   177    95    96    1
   178   131   132    2
   179   131   130    1
   180   127   128    2
   181    99   105    1
   182    91    92    1
   183   103   104    1
   184   130   133    1
   185     9     8    2
   186     9    10    1
   187     8     7    1
   188   133   134    1
   189   105   104    2
   190     6     7    1
   191     6     5    1
   192   134   135    1
   193   134   136    1
   194     1     2    1
   195     4     3    2
   196     5     2    1
   197     2     3    1
