@<TRIPOS>MOLECULE
tmp/2a2dA00.pdb
 158 150 0 0 0
SMALL
GASTEIGER

@<TRIPOS>ATOM
      1  N         18.3930   72.0170    5.1990 N.3    42  ARG42      -0.1245
      2  CA        18.9150   72.8530    6.2680 C.3    42  ARG42       0.1563
      3  C         18.0640   74.0650    6.5280 C.2    42  ARG42       0.2260
      4  O         17.2400   74.4770    5.7260 O.2    42  ARG42      -0.2867
      5  CB        20.3120   73.3820    5.9510 C.3    42  ARG42       0.0307
      6  CG        20.3020   74.2380    4.6860 C.3    42  ARG42       0.0489
      7  CD        20.0300   75.7250    4.9460 C.3    42  ARG42       0.2205
      8  NE        20.0170   76.5110    3.7090 N.pl3  42  ARG42      -0.0865
      9  CZ        18.9080   77.0640    3.1700 C.cat  42  ARG42       0.5346
     10  NH1       17.7480   76.9440    3.7500 N.pl3  42  ARG42       0.1354
     11  NH2       18.9440   77.7440    2.0230 N.pl3  42  ARG42       0.1354
     12  N         21.7880   85.2150    8.1570 N.3    47  GLY47      -0.1210
     13  CA        22.8210   85.4700    7.1810 C.3    47  GLY47       0.1956
     14  C         22.3070   85.0200    5.8140 C.2    47  GLY47       0.2612
     15  O         22.8640   84.1350    5.1840 O.2    47  GLY47      -0.2717
     16  N         21.2120   85.6500    5.3850 N.am   48  GLU48      -0.1965
     17  CA        20.5470   85.3740    4.1350 C.3    48  GLU48       0.1733
     18  C         21.0880   86.1830    2.9970 C.2    48  GLU48       0.2616
     19  O         21.2230   87.3880    3.1180 O.2    48  GLU48      -0.2715
     20  CB        19.0530   85.7610    4.2090 C.3    48  GLU48       0.0429
     21  CG        18.0470   84.6960    3.6260 C.3    48  GLU48       0.1163
     22  CD        18.2870   83.3460    4.2910 C.2    48  GLU48       0.3649
     23  OE1       17.8630   83.0310    5.3920 O.co2  48  GLU48      -0.2457
     24  OE2       19.0620   82.5670    3.5810 O.co2  48  GLU48      -0.2457
     25  N         21.2920   85.5290    1.8710 N.am   49  HIS49      -0.1959
     26  CA        21.7290   86.1880    0.6690 C.3    49  HIS49       0.1787
     27  C         23.1270   86.7970    0.7060 C.2    49  HIS49       0.2620
     28  O         23.4220   87.7630    0.0150 O.2    49  HIS49      -0.2715
     29  CB        20.6510   87.1730    0.1970 C.3    49  HIS49       0.0785
     30  CG        19.4580   86.4700   -0.3960 C.ar   49  HIS49       0.0821
     31  ND1       19.4340   86.1150   -1.7500 N.ar   49  HIS49      -0.2267
     32  CD2       18.2620   86.0800    0.1650 C.ar   49  HIS49       0.1154
     33  CE1       18.2410   85.5420   -1.9880 C.ar   49  HIS49       0.1986
     34  NE2       17.5050   85.5180   -0.8480 N.ar   49  HIS49      -0.2212
     35  N         24.0170   86.2100    1.4840 N.am   50  ILE50      -0.1963
     36  CA        25.3660   86.7310    1.5860 C.3    50  ILE50       0.1727
     37  C         26.4360   85.7300    1.2900 C.2    50  ILE50       0.2616
     38  O         27.6190   86.0840    1.2670 O.2    50  ILE50      -0.2715
     39  CB        25.6500   87.3940    2.9420 C.3    50  ILE50       0.0290
     40  CG1       25.8460   86.3890    4.0770 C.3    50  ILE50       0.0022
     41  CG2       24.6150   88.4530    3.3530 C.3    50  ILE50       0.0023
     42  CD1       25.5510   86.9900    5.4490 C.3    50  ILE50       0.0001
     43  N         26.0100   84.4840    1.1210 N.am   51  ASP51      -0.1957
     44  CA        26.9460   83.4140    0.8450 C.3    51  ASP51       0.1840
     45  C         27.5500   83.6640   -0.5140 C.2    51  ASP51       0.2622
     46  O         28.7670   83.6080   -0.7610 O.2    51  ASP51      -0.2715
     47  CB        26.3090   82.0020    1.0290 C.3    51  ASP51       0.1450
     48  CG        25.2620   81.6810    0.0150 C.2    51  ASP51       0.3671
     49  OD1       24.8020   82.5250   -0.7170 O.co2  51  ASP51      -0.2456
     50  OD2       24.9210   80.4110    0.0130 O.co2  51  ASP51      -0.2456
     51  N         26.6780   84.0260   -1.4300 N.am   52  TYR52      -0.1974
     52  CA        27.2570   84.2960   -2.7150 C.3    52  TYR52       0.1639
     53  C         28.0080   85.6050   -2.6810 C.2    52  TYR52       0.2290
     54  O         28.5820   85.9720   -3.6860 O.2    52  TYR52      -0.2864
     55  CB        26.3050   84.2090   -3.9290 C.3    52  TYR52       0.0560
     56  CG        25.0490   84.9770   -3.7070 C.ar   52  TYR52      -0.0198
     57  CD1       25.0030   86.3680   -3.8540 C.ar   52  TYR52      -0.0009
     58  CD2       23.9050   84.2930   -3.2870 C.ar   52  TYR52      -0.0009
     59  CE1       23.8290   87.0870   -3.5890 C.ar   52  TYR52       0.0417
     60  CE2       22.7280   84.9930   -3.0170 C.ar   52  TYR52       0.0417
     61  CZ        22.6940   86.3830   -3.1740 C.ar   52  TYR52       0.1957
     62  OH        21.5060   87.0330   -2.9270 O.3    52  TYR52      -0.2866
     63  N         16.2650   73.8960    1.0460 N.3   144  SER144     -0.1217
     64  CA        17.3560   73.3320    0.2820 C.3   144  SER144      0.1889
     65  C         17.1950   71.8910   -0.1400 C.2   144  SER144      0.2288
     66  O         18.1360   71.1240   -0.1980 O.2   144  SER144     -0.2866
     67  CB        18.6990   73.5580    0.9180 C.3   144  SER144      0.2089
     68  OG        18.9020   74.9420    1.0080 O.3   144  SER144     -0.2183
     69  N         16.6470   71.2090   -2.9830 N.3   146  SER146     -0.1202
     70  CA        17.3930   71.1220   -4.2140 C.3   146  SER146      0.2020
     71  C         18.8200   70.7320   -3.9160 C.2   146  SER146      0.2619
     72  O         19.4020   69.8900   -4.5960 O.2   146  SER146     -0.2717
     73  CB        17.3480   72.3450   -5.1080 C.3   146  SER146      0.2103
     74  OG        18.1700   73.3780   -4.6000 O.3   146  SER146     -0.2182
     75  N         19.3930   71.3320   -2.8800 N.am  147  SER147     -0.1951
     76  CA        20.7860   71.0280   -2.5730 C.3   147  SER147      0.1924
     77  C         20.9910   69.6550   -1.9590 C.2   147  SER147      0.2314
     78  O         22.0620   69.0510   -2.0780 O.2   147  SER147     -0.2863
     79  CB        21.4810   72.0780   -1.7560 C.3   147  SER147      0.2116
     80  OG        21.5000   73.3080   -2.4270 O.3   147  SER147     -0.2180
     81  N         25.7110   72.6660   -8.7910 N.3   178  GLU178     -0.1245
     82  CA        24.3000   73.0180   -8.7030 C.3   178  GLU178      0.1567
     83  C         23.9730   74.1390   -9.6560 C.2   178  GLU178      0.2260
     84  O         22.8890   74.1920  -10.2400 O.2   178  GLU178     -0.2867
     85  CB        23.7890   73.2960   -7.2610 C.3   178  GLU178      0.0388
     86  CG        22.2630   73.5460   -7.1710 C.3   178  GLU178      0.1160
     87  CD        21.6670   73.2980   -5.8110 C.2   178  GLU178      0.3649
     88  OE1       22.2880   72.8550   -4.8750 O.co2 178  GLU178     -0.2457
     89  OE2       20.4120   73.6580   -5.7370 O.co2 178  GLU178     -0.2457
     90  N         20.9690   78.5060  -11.4560 N.3   183  THR183     -0.1218
     91  CA        21.0900   79.3820  -10.3130 C.3   183  THR183      0.1862
     92  C         22.5480   79.7340  -10.0160 C.2   183  THR183      0.2287
     93  O         23.4510   78.8810  -10.0910 O.2   183  THR183     -0.2866
     94  CB        20.4300   78.7150   -9.0980 C.3   183  THR183      0.1770
     95  OG1       21.0330   77.4290   -8.8660 O.3   183  THR183     -0.2211
     96  CG2       18.9170   78.5900   -9.3440 C.3   183  THR183      0.0375
     97  N         23.7790   80.7270   -7.0770 N.3   185  GLY185     -0.1210
     98  CA        23.8310   80.7830   -5.6200 C.3   185  GLY185      0.1956
     99  C         25.2210   80.6050   -5.0120 C.2   185  GLY185      0.2612
    100  O         26.2170   80.4460   -5.7160 O.2   185  GLY185     -0.2717
    101  N         25.2800   80.6530   -3.6840 N.am  186  GLY186     -0.1956
    102  CA        26.5400   80.5000   -3.0000 C.3   186  GLY186      0.1869
    103  C         26.7550   79.0300   -2.6250 C.2   186  GLY186      0.2309
    104  O         26.3250   78.0780   -3.3270 O.2   186  GLY186     -0.2863
    105  N         26.2180   77.9440    0.8220 N.3   188  MET188     -0.1230
    106  CA        25.8100   77.5170    2.1240 C.3   188  MET188      0.1702
    107  C         25.1080   76.1670    2.1840 C.2   188  MET188      0.2592
    108  O         25.3770   75.3210    3.0140 O.2   188  MET188     -0.2718
    109  CB        24.9010   78.5470    2.7270 C.3   188  MET188      0.0401
    110  CG        24.1610   77.9850    3.8930 C.3   188  MET188      0.0596
    111  SD        23.0360   79.2700    4.4080 S.3   188  MET188     -0.1393
    112  CE        22.2310   79.6000    2.8040 C.3   188  MET188      0.0692
    113  N         24.1390   75.9880    1.3320 N.am  189  ASP189     -0.1960
    114  CA        23.3420   74.8050    1.3760 C.3   189  ASP189      0.1840
    115  C         24.0470   73.4150    1.3160 C.2   189  ASP189      0.2621
    116  O         23.7200   72.4460    2.0030 O.2   189  ASP189     -0.2715
    117  CB        22.1640   74.9470    0.4070 C.3   189  ASP189      0.1450
    118  CG        21.3540   76.2150    0.5600 C.2   189  ASP189      0.3671
    119  OD1       21.6250   77.0600    1.3730 O.co2 189  ASP189     -0.2456
    120  OD2       20.3380   76.2980   -0.2930 O.co2 189  ASP189     -0.2456
    121  N         25.0150   73.3040    0.4470 N.am  190  GLN190     -0.1977
    122  CA        25.7490   72.0770    0.2000 C.3   190  GLN190      0.1601
    123  C         26.7700   71.8270    1.2750 C.2   190  GLN190      0.2287
    124  O         27.0670   70.7120    1.6250 O.2   190  GLN190     -0.2864
    125  CB        26.4250   72.1860   -1.1940 C.3   190  GLN190      0.0394
    126  CG        25.3840   72.4790   -2.3010 C.3   190  GLN190      0.0908
    127  CD        25.2170   73.9610   -2.6140 C.2   190  GLN190      0.2608
    128  OE1       25.6700   74.8190   -1.8550 O.2   190  GLN190     -0.2717
    129  NE2       24.6260   74.2640   -3.7710 N.am  190  GLN190     -0.0878
    130  N         13.3100   78.4900   -7.2050 N.3   233  LYS233     -0.1197
    131  CA        14.5010   79.3160   -7.4920 C.3   233  LYS233      0.1778
    132  C         14.9500   79.2250   -8.9730 C.2   233  LYS233      0.2305
    133  O         15.2080   80.2390   -9.6660 O.2   233  LYS233     -0.2863
    134  CB        15.7020   79.1210   -6.5220 C.2   233  LYS233     -0.0042
    135  CG        15.5130   78.9010   -5.0070 C.2   233  LYS233     -0.0273
    136  CD        14.0980   78.8160   -4.4410 C.3   233  LYS233      0.0462
    137  CE        13.9240   77.7920   -3.3110 C.3   233  LYS233      0.1140
    138  NZ        12.9150   78.0920   -2.2430 N.3   233  LYS233     -0.1310
    139  N         16.2240   85.4580   -7.9140 N.3   239  PHE239     -0.1241
    140  CA        17.4890   85.1220   -7.3080 C.3   239  PHE239      0.1605
    141  C         18.6840   85.6670   -8.0540 C.2   239  PHE239      0.2264
    142  O         19.5680   86.2930   -7.4770 O.2   239  PHE239     -0.2867
    143  CB        17.6350   83.5750   -7.1130 C.3   239  PHE239      0.0534
    144  CG        18.7810   83.1840   -6.1840 C.ar  239  PHE239     -0.0203
    145  CD1       18.5750   83.0990   -4.8090 C.ar  239  PHE239     -0.0042
    146  CD2       20.0520   82.9070   -6.6870 C.ar  239  PHE239     -0.0042
    147  CE1       19.6060   82.7630   -3.9400 C.ar  239  PHE239     -0.0003
    148  CE2       21.0980   82.5700   -5.8330 C.ar  239  PHE239     -0.0003
    149  CZ        20.8630   82.4960   -4.4650 C.ar  239  PHE239     -0.0000
    150  N         16.1320   80.7120    3.9900 N.3   400  GLY400     -0.1210
    151  CA        16.4330   80.3690    2.5850 C.3   400  GLY400      0.1956
    152  C         16.2870   81.5720    1.6480 C.2   400  GLY400      0.2611
    153  O         16.4030   82.7200    2.0680 O.2   400  GLY400     -0.2717
    154  N         16.0090   81.3290    0.3730 N.am  401  ALA401     -0.1979
    155  CA        15.8910   82.3930   -0.6220 C.3   401  ALA401      0.1597
    156  C         14.8300   83.4510   -0.3840 C.2   401  ALA401      0.2287
    157  O         15.0740   84.6290   -0.6440 O.2   401  ALA401     -0.2864
    158  CB        15.7850   81.8580   -2.0260 C.3   401  ALA401      0.0319
@<TRIPOS>BOND
     1    90    91    1
     2    91    92    1
     3    91    94    1
     4    84    83    2
     5    93    92    2
     6   133   132    2
     7    83    82    1
     8    96    94    1
     9    94    95    1
    10   132   131    1
    11    81    82    1
    12    82    85    1
    13   141   142    2
    14   141   140    1
    15   139   140    1
    16   131   130    1
    17   131   134    1
    18   140   143    1
    19    85    86    1
    20    86    87    1
    21   143   144    1
    22    97    98    1
    23   146   144   ar
    24   146   148   ar
    25   134   135    2
    26   144   145   ar
    27   148   149   ar
    28    87    89   ar
    29    87    88   ar
    30   100    99    2
    31    98    99    1
    32    73    74    1
    33    73    70    1
    34    99   101   am
    35   135   136    1
    36   145   147   ar
    37    72    71    2
    38   149   147   ar
    39   136   137    1
    40    70    71    1
    41    70    69    1
    42    55    56    1
    43    55    52    1
    44    71    75   am
    45    57    56   ar
    46    57    59   ar
    47   129   127   am
    48    56    58   ar
    49    54    53    2
    50   101   102    1
    51    59    61   ar
    52   104   103    2
    53   137   138    1
    54    58    60   ar
    55    61    60   ar
    56    61    62    1
    57   102   103    1
    58    75    76    1
    59    52    53    1
    60    52    51    1
    61   127   126    1
    62   127   128    2
    63    76    77    1
    64    76    79    1
    65    80    79    1
    66   126   125    1
    67    78    77    2
    68   158   155    1
    69    33    31   ar
    70    33    34   ar
    71    31    30   ar
    72    51    45   am
    73   125   122    1
    74    34    32   ar
    75    46    45    2
    76    49    48   ar
    77   157   156    2
    78   155   156    1
    79   155   154    1
    80    45    44    1
    81    30    32   ar
    82    30    29    1
    83   120   118   ar
    84    66    65    2
    85    65    64    1
    86    50    48   ar
    87    48    47    1
    88    28    27    2
    89    29    26    1
    90   122   121    1
    91   122   123    1
    92    64    67    1
    93    64    63    1
    94   154   152   am
    95   117   118    1
    96   117   114    1
    97   121   115   am
    98   118   119   ar
    99    26    27    1
   100    26    25    1
   101    27    35   am
   102   105   106    1
   103    44    47    1
   104    44    43    1
   105    67    68    1
   106    43    37   am
   107    38    37    2
   108   123   124    2
   109    37    36    1
   110   115   114    1
   111   115   116    2
   112   113   114    1
   113   113   107   am
   114    35    36    1
   115    36    39    1
   116   152   153    2
   117   152   151    1
   118    25    18   am
   119    11     9    1
   120   106   107    1
   121   106   109    1
   122   107   108    2
   123   151   150    1
   124   109   110    1
   125   112   111    1
   126    39    41    1
   127    39    40    1
   128    18    19    2
   129    18    17    1
   130     9     8    2
   131     9    10    1
   132    24    22   ar
   133    21    20    1
   134    21    22    1
   135     8     7    1
   136   110   111    1
   137    40    42    1
   138    17    20    1
   139    17    16    1
   140    22    23   ar
   141     6     7    1
   142     6     5    1
   143    15    14    2
   144     1     2    1
   145    16    14   am
   146     4     3    2
   147    14    13    1
   148     5     2    1
   149     2     3    1
   150    13    12    1
