@<TRIPOS>MOLECULE
tmp/2a2gB00.pdb
 137 128 0 0 0
SMALL
GASTEIGER

@<TRIPOS>ATOM
      1  N          3.0040   19.2320   70.9980 N.3    38  MET38      -0.1245
      2  CA         2.0200   18.9460   72.0360 C.3    38  MET38       0.1570
      3  C          0.5680   19.3270   71.7380 C.2    38  MET38       0.2261
      4  O         -0.3180   19.0450   72.5470 O.2    38  MET38      -0.2867
      5  CB         2.4650   19.5670   73.3610 C.3    38  MET38       0.0387
      6  CG         3.7780   19.0090   73.8880 C.3    38  MET38       0.0595
      7  SD         3.7250   17.2320   74.1850 S.3    38  MET38      -0.1393
      8  CE         5.3900   16.9510   74.7710 C.3    38  MET38       0.0692
      9  N         -2.0440   18.1800   70.5810 N.3    40  VAL40      -0.1245
     10  CA        -2.6800   16.9230   70.2180 C.3    40  VAL40       0.1561
     11  C         -4.1960   16.9630   70.3060 C.2    40  VAL40       0.2260
     12  O         -4.7610   17.6040   71.1890 O.2    40  VAL40      -0.2867
     13  CB        -2.1580   15.7710   71.1050 C.3    40  VAL40       0.0252
     14  CG1       -0.6710   15.5630   70.8740 C.3    40  VAL40       0.0019
     15  CG2       -2.4280   16.0710   72.5740 C.3    40  VAL40       0.0019
     16  N         -6.8600   14.5180   70.9440 N.3    42  MET42      -0.1245
     17  CA        -7.1810   13.2030   71.4760 C.3    42  MET42       0.1570
     18  C         -8.4030   12.5930   70.8050 C.2    42  MET42       0.2261
     19  O         -9.2990   13.3010   70.3420 O.2    42  MET42      -0.2867
     20  CB        -7.3910   13.2880   72.9920 C.3    42  MET42       0.0387
     21  CG        -7.4330   11.9400   73.7060 C.3    42  MET42       0.0595
     22  SD        -5.9790   10.9410   73.3210 S.3    42  MET42      -0.1393
     23  CE        -4.6790   11.9600   73.9710 C.3    42  MET42       0.0692
     24  N         -2.8990    5.6500   73.6470 N.3    54  PHE54      -0.1241
     25  CA        -3.5250    6.8810   73.1820 C.3    54  PHE54       0.1605
     26  C         -3.5800    7.0070   71.6670 C.2    54  PHE54       0.2264
     27  O         -2.5570    6.9100   70.9880 O.2    54  PHE54      -0.2867
     28  CB        -2.7830    8.1010   73.7430 C.3    54  PHE54       0.0534
     29  CG        -2.8300    8.2140   75.2410 C.ar   54  PHE54      -0.0203
     30  CD1       -1.9130    7.5400   76.0350 C.ar   54  PHE54      -0.0042
     31  CD2       -3.7830    9.0240   75.8570 C.ar   54  PHE54      -0.0042
     32  CE1       -1.9350    7.6720   77.4230 C.ar   54  PHE54      -0.0003
     33  CE2       -3.8110    9.1610   77.2410 C.ar   54  PHE54      -0.0003
     34  CZ        -2.8840    8.4810   78.0240 C.ar   54  PHE54      -0.0000
     35  N         -4.5670    9.5900   68.7690 N.3    56  PHE56      -0.1241
     36  CA        -4.7890   11.0160   68.5910 C.3    56  PHE56       0.1605
     37  C         -4.2750   11.5130   67.2540 C.2    56  PHE56       0.2264
     38  O         -3.4040   10.8990   66.6340 O.2    56  PHE56      -0.2867
     39  CB        -4.0690   11.7890   69.7000 C.3    56  PHE56       0.0534
     40  CG        -2.5750   11.5940   69.7030 C.ar   56  PHE56      -0.0203
     41  CD1       -2.0110   10.4550   70.2720 C.ar   56  PHE56      -0.0042
     42  CD2       -1.7310   12.5320   69.1110 C.ar   56  PHE56      -0.0042
     43  CE1       -0.6360   10.2600   70.2580 C.ar   56  PHE56      -0.0003
     44  CE2       -0.3550   12.3450   69.0930 C.ar   56  PHE56      -0.0003
     45  CZ         0.1950   11.2050   69.6620 C.ar   56  PHE56      -0.0000
     46  N          0.1770    6.0360   70.7480 N.3    69  LEU69      -0.1245
     47  CA         1.2690    5.9010   71.7020 C.3    69  LEU69       0.1561
     48  C          0.8840    5.0890   72.9250 C.2    69  LEU69       0.2260
     49  O         -0.2470    5.1620   73.4100 O.2    69  LEU69      -0.2867
     50  CB         1.7640    7.2760   72.1550 C.3    69  LEU69       0.0270
     51  CG         2.5040    8.1720   71.1650 C.3    69  LEU69       0.0019
     52  CD1        2.9880    9.3980   71.9080 C.3    69  LEU69       0.0001
     53  CD2        3.6820    7.4310   70.5480 C.3    69  LEU69       0.0001
     54  N          6.1980    7.8610   78.7270 N.3    82  VAL82      -0.1245
     55  CA         5.9360    7.7900   77.2990 C.3    82  VAL82       0.1561
     56  C          7.0240    8.5610   76.5660 C.2    82  VAL82       0.2260
     57  O          7.3930    9.6660   76.9630 O.2    82  VAL82      -0.2867
     58  CB         4.5250    8.3430   76.9340 C.3    82  VAL82       0.0252
     59  CG1        4.4210    9.8280   77.2490 C.3    82  VAL82       0.0019
     60  CG2        4.2130    8.0790   75.4640 C.3    82  VAL82       0.0019
     61  N          7.9890   10.5800   73.5870 N.3    84  TYR84      -0.1241
     62  CA         7.3700   11.3840   72.5460 C.3    84  TYR84       0.1605
     63  C          7.9720   12.7790   72.6080 C.2    84  TYR84       0.2264
     64  O          7.7180   13.5280   73.5510 O.2    84  TYR84      -0.2867
     65  CB         5.8610   11.4750   72.7670 C.3    84  TYR84       0.0534
     66  CG         5.1690   12.3050   71.7180 C.ar   84  TYR84      -0.0201
     67  CD1        4.8590   11.7620   70.4760 C.ar   84  TYR84      -0.0009
     68  CD2        4.8500   13.6430   71.9550 C.ar   84  TYR84      -0.0009
     69  CE1        4.2510   12.5240   69.4890 C.ar   84  TYR84       0.0417
     70  CE2        4.2420   14.4200   70.9680 C.ar   84  TYR84       0.0417
     71  CZ         3.9450   13.8520   69.7390 C.ar   84  TYR84       0.1957
     72  OH         3.3520   14.6040   68.7530 O.3    84  TYR84      -0.2866
     73  N          8.7840   11.6040   78.5580 N.3    88  ASN88      -0.1240
     74  CA         7.6410   12.1870   79.2560 C.3    88  ASN88       0.1653
     75  C          7.1540   11.3800   80.4460 C.2    88  ASN88       0.2266
     76  O          7.0960   10.1510   80.4130 O.2    88  ASN88      -0.2867
     77  CB         6.4620   12.4000   78.3010 C.3    88  ASN88       0.1155
     78  CG         6.7820   13.3600   77.1700 C.2    88  ASN88       0.2627
     79  OD1        6.9350   14.5590   77.3820 O.2    88  ASN88      -0.2716
     80  ND2        6.8620   12.8330   75.9580 N.am   88  ASN88      -0.0877
     81  N          3.9090   11.5840   83.2930 N.3    90  PHE90      -0.1241
     82  CA         2.6370   12.2540   83.5100 C.3    90  PHE90       0.1605
     83  C          1.7790   11.5430   84.5390 C.2    90  PHE90       0.2264
     84  O          1.9930   10.3650   84.8410 O.2    90  PHE90      -0.2867
     85  CB         1.8660   12.3990   82.1890 C.3    90  PHE90       0.0534
     86  CG         1.2630   11.1160   81.6750 C.ar   90  PHE90      -0.0203
     87  CD1        0.1060   10.5880   82.2460 C.ar   90  PHE90      -0.0042
     88  CD2        1.8370   10.4490   80.6000 C.ar   90  PHE90      -0.0042
     89  CE1       -0.4730    9.4230   81.7480 C.ar   90  PHE90      -0.0003
     90  CE2        1.2650    9.2830   80.0930 C.ar   90  PHE90      -0.0003
     91  CZ         0.1080    8.7670   80.6720 C.ar   90  PHE90      -0.0000
     92  N         -4.7320   15.8330   82.8460 N.3   103  PHE103     -0.1241
     93  CA        -3.4030   15.2320   82.8960 C.3   103  PHE103      0.1605
     94  C         -2.3360   16.2950   83.1240 C.2   103  PHE103      0.2264
     95  O         -2.4500   17.4200   82.6320 O.2   103  PHE103     -0.2867
     96  CB        -3.0800   14.5130   81.5840 C.3   103  PHE103      0.0534
     97  CG        -3.7910   13.2040   81.3980 C.ar  103  PHE103     -0.0203
     98  CD1       -3.3090   12.0440   81.9940 C.ar  103  PHE103     -0.0042
     99  CD2       -4.9190   13.1240   80.5920 C.ar  103  PHE103     -0.0042
    100  CE1       -3.9310   10.8190   81.7740 C.ar  103  PHE103     -0.0003
    101  CE2       -5.5480   11.9050   80.3670 C.ar  103  PHE103     -0.0003
    102  CZ        -5.0550   10.7500   80.9660 C.ar  103  PHE103     -0.0000
    103  N          1.7020   16.6820   82.6540 N.3   105  LEU105     -0.1245
    104  CA         2.8780   16.0700   82.0600 C.3   105  LEU105      0.1561
    105  C          4.1510   16.8930   82.2060 C.2   105  LEU105      0.2260
    106  O          4.1090   18.1210   82.2490 O.2   105  LEU105     -0.2867
    107  CB         2.5990   15.7820   80.5800 C.3   105  LEU105      0.0270
    108  CG         3.7060   15.2080   79.6910 C.3   105  LEU105      0.0019
    109  CD1        3.1460   14.0760   78.8490 C.3   105  LEU105      0.0001
    110  CD2        4.3040   16.2950   78.8050 C.3   105  LEU105      0.0001
    111  N          3.2450   20.4050   81.0790 N.3   116  LEU116     -0.1245
    112  CA         2.0890   20.4280   80.2070 C.3   116  LEU116      0.1561
    113  C          0.8810   19.9340   80.9780 C.2   116  LEU116      0.2260
    114  O          0.9740   19.0070   81.7840 O.2   116  LEU116     -0.2867
    115  CB         2.2970   19.5440   78.9760 C.3   116  LEU116      0.0270
    116  CG         1.0950   19.4970   78.0270 C.3   116  LEU116      0.0019
    117  CD1        0.9740   20.8060   77.2690 C.3   116  LEU116      0.0001
    118  CD2        1.2310   18.3340   77.0600 C.3   116  LEU116      0.0001
    119  N         -3.3470   19.1530   80.2820 N.3   118  VAL118     -0.1245
    120  CA        -4.4010   19.0030   79.2900 C.3   118  VAL118      0.1561
    121  C         -5.7390   18.6500   79.9250 C.2   118  VAL118      0.2260
    122  O         -5.8040   17.9430   80.9320 O.2   118  VAL118     -0.2867
    123  CB        -4.0390   17.9070   78.2520 C.3   118  VAL118      0.0252
    124  CG1       -2.7690   18.2830   77.5040 C.3   118  VAL118      0.0019
    125  CG2       -3.8530   16.5680   78.9430 C.3   118  VAL118      0.0019
    126  N         -8.7790   16.8340   78.7290 N.3   120  TYR120     -0.1241
    127  CA        -9.4370   15.9850   77.7460 C.3   120  TYR120      0.1605
    128  C        -10.8630   15.7020   78.2380 C.2   120  TYR120      0.2264
    129  O        -11.0630   15.3700   79.4090 O.2   120  TYR120     -0.2867
    130  CB        -8.6580   14.6720   77.5470 C.3   120  TYR120      0.0534
    131  CG        -7.2400   14.8030   76.9990 C.ar  120  TYR120     -0.0201
    132  CD1       -6.9310   15.6800   75.9550 C.ar  120  TYR120     -0.0009
    133  CD2       -6.2160   14.0070   77.5090 C.ar  120  TYR120     -0.0009
    134  CE1       -5.6260   15.7570   75.4410 C.ar  120  TYR120      0.0417
    135  CE2       -4.9240   14.0730   77.0090 C.ar  120  TYR120      0.0417
    136  CZ        -4.6290   14.9490   75.9740 C.ar  120  TYR120      0.1957
    137  OH        -3.3450   15.0040   75.4780 O.3   120  TYR120     -0.2866
@<TRIPOS>BOND
     1    38    37    2
     2    37    36    1
     3    36    35    1
     4    36    39    1
     5    72    71    1
     6    44    42   ar
     7    44    45   ar
     8    42    40   ar
     9    69    71   ar
    10    69    67   ar
    11    45    43   ar
    12    39    40    1
    13    40    41   ar
    14    71    70   ar
    15    10    11    1
    16    10     9    1
    17    10    13    1
    18    43    41   ar
    19    11    12    2
    20    19    18    2
    21    67    66   ar
    22    53    51    1
    23    46    47    1
    24    18    17    1
    25    14    13    1
    26    16    17    1
    27    70    68   ar
    28    27    26    2
    29     1     2    1
    30    13    15    1
    31    51    52    1
    32    51    50    1
    33    17    20    1
    34    26    25    1
    35    47    50    1
    36    47    48    1
    37    66    68   ar
    38    66    65    1
    39     3     2    1
    40     3     4    2
    41     2     5    1
    42    62    63    1
    43    62    65    1
    44    62    61    1
    45    63    64    2
    46    48    49    2
    47    20    21    1
    48    25    24    1
    49    25    28    1
    50    22    21    1
    51    22    23    1
    52     5     6    1
    53    28    29    1
    54     6     7    1
    55     7     8    1
    56    29    31   ar
    57    29    30   ar
    58   134   132   ar
    59   134   136   ar
    60    60    58    1
    61   137   136    1
    62    31    33   ar
    63   132   131   ar
    64    80    78   am
    65   136   135   ar
    66    30    32   ar
    67    56    57    2
    68    56    55    1
    69    58    59    1
    70    58    55    1
    71   131   133   ar
    72   131   130    1
    73   135   133   ar
    74   118   116    1
    75    78    79    2
    76    78    77    1
    77    33    34   ar
    78   117   116    1
    79    55    54    1
    80    32    34   ar
    81   124   123    1
    82   130   127    1
    83   127   128    1
    84   127   126    1
    85   116   115    1
    86   128   129    2
    87   123   125    1
    88   123   120    1
    89    77    74    1
    90    73    74    1
    91   110   108    1
    92   109   108    1
    93   115   112    1
    94    74    75    1
    95   120   121    1
    96   120   119    1
    97   108   107    1
    98   121   122    2
    99    90    88   ar
   100    90    91   ar
   101   112   113    1
   102   112   111    1
   103   101    99   ar
   104   101   102   ar
   105    76    75    2
   106   107   104    1
   107    99    97   ar
   108    88    86   ar
   109    91    89   ar
   110   102   100   ar
   111   113   114    2
   112    97    96    1
   113    97    98   ar
   114    96    93    1
   115    86    85    1
   116    86    87   ar
   117    89    87   ar
   118   100    98   ar
   119   104   105    1
   120   104   103    1
   121    85    82    1
   122   105   106    2
   123    95    94    2
   124    92    93    1
   125    93    94    1
   126    81    82    1
   127    82    83    1
   128    83    84    2
