@<TRIPOS>MOLECULE
tmp/2a2qB00.pdb
 129 130 0 0 0
SMALL
GASTEIGER

@<TRIPOS>ATOM
      1  N         30.4020   15.7040    5.1760 N.3    41  HIS41      -0.1241
      2  CA        30.8880   14.4370    4.6120 C.3    41  HIS41       0.1621
      3  C         29.8250   13.6470    3.8370 C.2    41  HIS41       0.2264
      4  O         30.1490   12.7670    3.0530 O.2    41  HIS41      -0.2867
      5  CB        31.5640   13.5730    5.6960 C.3    41  HIS41       0.0745
      6  CG        30.6200   12.7020    6.4750 C.ar   41  HIS41       0.0817
      7  ND1       30.1320   13.0520    7.7160 N.ar   41  HIS41      -0.2268
      8  CD2       30.1140   11.4710    6.2120 C.ar   41  HIS41       0.1154
      9  CE1       29.3650   12.0810    8.1820 C.ar   41  HIS41       0.1986
     10  NE2       29.3370   11.1080    7.2880 N.ar   41  HIS41      -0.2212
     11  N         24.5860    4.2980   20.5850 N.3   186  ASP186     -0.1225
     12  CA        25.4030    5.2520   19.8360 C.3   186  ASP186      0.1805
     13  C         24.7270    5.4990   18.5030 C.2   186  ASP186      0.2598
     14  O         23.8820    4.7070   18.0540 O.2   186  ASP186     -0.2718
     15  CB        26.8470    4.6990   19.6380 C.3   186  ASP186      0.1424
     16  CG        27.8970    5.6220   19.0220 C.2   186  ASP186      0.3668
     17  OD1       27.6270    6.8330   18.9230 O.co2 186  ASP186     -0.2456
     18  OD2       28.9730    5.1160   18.6480 O.co2 186  ASP186     -0.2456
     19  N         25.1000    6.5670   17.8750 N.am  187  SER187     -0.1938
     20  CA        24.5230    6.8520   16.5650 C.3   187  SER187      0.2055
     21  C         25.4820    6.0900   15.6270 C.2   187  SER187      0.2643
     22  O         26.4170    5.4390   16.0900 O.2   187  SER187     -0.2714
     23  CB        24.4570    8.3530   16.2690 C.3   187  SER187      0.2130
     24  OG        25.7130    8.9830   16.4060 O.3   187  SER187     -0.2179
     25  N         25.2390    6.1080   14.3270 N.am  188  CYS188     -0.1953
     26  CA        26.0840    5.3450   13.4130 C.3   188  CYS188      0.1843
     27  C         26.2030    6.0540   12.0610 C.2   188  CYS188      0.2625
     28  O         25.6670    7.1470   11.8670 O.2   188  CYS188     -0.2714
     29  CB        25.5040    3.9200   13.2790 C.3   188  CYS188      0.0997
     30  SG        26.6170    2.5810   12.7250 S.3   188  CYS188     -0.0797
     31  N         26.9210    5.4340   11.1300 N.am  189  LYS189     -0.1977
     32  CA        27.1410    6.0110    9.7950 C.3   189  LYS189      0.1596
     33  C         25.9070    6.6000    9.0940 C.2   189  LYS189      0.2287
     34  O         25.9200    7.7640    8.6700 O.2   189  LYS189     -0.2864
     35  CB        27.7900    4.9680    8.8880 C.3   189  LYS189      0.0298
     36  CG        29.2750    4.8290    9.1230 C.3   189  LYS189      0.0038
     37  CD        29.8490    3.5310    8.5400 C.3   189  LYS189      0.0206
     38  CE        29.7990    3.4710    7.0150 C.3   189  LYS189      0.1093
     39  NZ        30.5700    2.2770    6.4740 N.3   189  LYS189     -0.1314
     40  N         24.4660    9.9850   10.0210 N.3   192  SER192     -0.1217
     41  CA        25.2670   11.1710    9.6900 C.3   192  SER192      0.1889
     42  C         24.4160   12.3510    9.2300 C.2   192  SER192      0.2288
     43  O         23.4570   12.1730    8.4540 O.2   192  SER192     -0.2866
     44  CB        26.2990   10.8600    8.5990 C.3   192  SER192      0.2089
     45  OG        27.3340   10.0250    9.0840 O.3   192  SER192     -0.2183
     46  N         25.3660   14.6030   13.8090 N.3   210  VAL210     -0.1231
     47  CA        25.9810   13.2710   13.7850 C.3   210  VAL210      0.1692
     48  C         27.1280   13.3440   12.7640 C.2   210  VAL210      0.2593
     49  O         26.8950   13.5480   11.5790 O.2   210  VAL210     -0.2718
     50  CB        24.9440   12.1840   13.4030 C.3   210  VAL210      0.0266
     51  CG1       25.6300   10.8240   13.3560 C.3   210  VAL210      0.0020
     52  CG2       23.7890   12.1810   14.4000 C.3   210  VAL210      0.0020
     53  N         28.3520   13.1490   13.2330 N.am  211  SER211     -0.1938
     54  CA        29.5170   13.3020   12.3830 C.3   211  SER211      0.2055
     55  C         30.4090   12.0630   12.1870 C.2   211  SER211      0.2643
     56  O         30.5230   11.5600   11.0640 O.2   211  SER211     -0.2714
     57  CB        30.3210   14.5120   12.9050 C.3   211  SER211      0.2130
     58  OG        31.5440   14.7810   12.2070 O.3   211  SER211     -0.2179
     59  N         31.0250   11.5370   13.2410 N.am  212  TRP212     -0.1959
     60  CA        31.8960   10.3740   13.0780 C.3   212  TRP212      0.1771
     61  C         32.0600    9.6120   14.3780 C.2   212  TRP212      0.2620
     62  O         31.5640   10.0430   15.4220 O.2   212  TRP212     -0.2715
     63  CB        33.2790   10.8060   12.5590 C.3   212  TRP212      0.0590
     64  CG        34.1100   11.7470   13.4620 C.ar  212  TRP212      0.0006
     65  CD1       34.0330   13.1020   13.5210 C.ar  212  TRP212      0.0946
     66  CD2       35.1980   11.3690   14.3330 C.ar  212  TRP212      0.0152
     67  NE1       35.0000   13.6000   14.3550 N.ar  212  TRP212     -0.2442
     68  CE2       35.7260   12.5650   14.8600 C.ar  212  TRP212      0.0810
     69  CE3       35.7600   10.1480   14.7040 C.ar  212  TRP212      0.0012
     70  CZ2       36.8070   12.5640   15.7560 C.ar  212  TRP212      0.0191
     71  CZ3       36.8260   10.1470   15.5960 C.ar  212  TRP212      0.0001
     72  CH2       37.3410   11.3500   16.1070 C.ar  212  TRP212      0.0015
     73  N         32.7810    8.4930   14.3010 N.am  213  GLY213     -0.1940
     74  CA        33.0250    7.6760   15.4630 C.3   213  GLY213      0.2014
     75  C         33.8740    6.5030   15.0310 C.2   213  GLY213      0.2639
     76  O         34.1670    6.3440   13.8400 O.2   213  GLY213     -0.2714
     77  N         34.3830    5.7510   15.9920 N.am  214  GLN214     -0.1963
     78  CA        35.1860    4.5600   15.7050 C.3   214  GLN214      0.1733
     79  C         34.1280    3.4540   15.6760 C.2   214  GLN214      0.2617
     80  O         33.6780    3.0070   16.7220 O.2   214  GLN214     -0.2715
     81  CB        36.1580    4.3170   16.8600 C.3   214  GLN214      0.0408
     82  CG        37.1000    3.1440   16.6730 C.3   214  GLN214      0.0908
     83  CD        38.1760    3.4070   15.6220 C.2   214  GLN214      0.2608
     84  OE1       38.7540    4.4960   15.5450 O.2   214  GLN214     -0.2717
     85  NE2       38.4550    2.4020   14.8190 N.am  214  GLN214     -0.0878
     86  N         33.6690    3.0720   14.4930 N.am  215  GLY215     -0.1940
     87  CA        32.6380    2.0550   14.4230 C.3   215  GLY215      0.2014
     88  C         31.3800    2.6940   14.9920 C.2   215  GLY215      0.2639
     89  O         31.2130    3.9060   14.9120 O.2   215  GLY215     -0.2714
     90  N         30.5320    1.9020   15.6280 N.am  216  CYS216     -0.1967
     91  CA        29.3000    2.3980   16.2310 C.3   216  CYS216      0.1712
     92  C         29.0970    1.5650   17.4600 C.2   216  CYS216      0.2296
     93  O         29.0320    0.3490   17.3670 O.2   216  CYS216     -0.2864
     94  CB        28.1140    2.1780   15.3010 C.3   216  CYS216      0.0983
     95  SG        28.3820    2.9050   13.6670 S.3   216  CYS216     -0.0798
     96  N         33.1210    6.9780   22.0330 N.3   222  PHE222     -0.1227
     97  CA        31.9080    7.7780   22.0740 C.3   222  PHE222      0.1736
     98  C         31.5840    8.2730   20.6540 C.2   222  PHE222      0.2596
     99  O         32.4330    8.2000   19.7670 O.2   222  PHE222     -0.2718
    100  CB        32.1510    9.0060   22.9650 C.3   222  PHE222      0.0547
    101  CG        32.3820    8.6760   24.4150 C.ar  222  PHE222     -0.0202
    102  CD1       31.3020    8.5690   25.3000 C.ar  222  PHE222     -0.0042
    103  CD2       33.6710    8.4820   24.9020 C.ar  222  PHE222     -0.0042
    104  CE1       31.5050    8.2750   26.6480 C.ar  222  PHE222     -0.0003
    105  CE2       33.8770    8.1870   26.2500 C.ar  222  PHE222     -0.0003
    106  CZ        32.7930    8.0820   27.1150 C.ar  222  PHE222     -0.0000
    107  N         30.3600    8.7290   20.4240 N.am  223  GLY223     -0.1942
    108  CA        30.0580    9.2850   19.1190 C.3   223  GLY223      0.2014
    109  C         30.6350   10.6970   19.0890 C.2   223  GLY223      0.2639
    110  O         30.7480   11.3330   20.1210 O.2   223  GLY223     -0.2714
    111  N         31.0830   11.1700   17.9360 N.am  224  VAL224     -0.1963
    112  CA        31.6370   12.5210   17.8400 C.3   224  VAL224      0.1727
    113  C         30.7030   13.3620   16.9660 C.2   224  VAL224      0.2616
    114  O         30.3130   12.9580   15.8480 O.2   224  VAL224     -0.2715
    115  CB        33.1060   12.5380   17.3280 C.3   224  VAL224      0.0290
    116  CG1       33.6640   13.9430   17.4280 C.3   224  VAL224      0.0023
    117  CG2       33.9670   11.5640   18.1460 C.3   224  VAL224      0.0023
    118  N         30.3370   14.5230   17.4940 N.am  225  TYR225     -0.1974
    119  CA        29.3750   15.4190   16.8650 C.3   225  TYR225      0.1639
    120  C         29.9540   16.7750   16.5190 C.2   225  TYR225      0.2290
    121  O         30.8160   17.2820   17.2290 O.2   225  TYR225     -0.2864
    122  CB        28.2040   15.6380   17.8280 C.3   225  TYR225      0.0560
    123  CG        27.4980   14.3530   18.1810 C.ar  225  TYR225     -0.0198
    124  CD1       28.0150   13.4810   19.1530 C.ar  225  TYR225     -0.0009
    125  CD2       26.3580   13.9530   17.4750 C.ar  225  TYR225     -0.0009
    126  CE1       27.4010   12.2180   19.3990 C.ar  225  TYR225      0.0417
    127  CE2       25.7510   12.7320   17.7090 C.ar  225  TYR225      0.0417
    128  CZ        26.2740   11.8600   18.6620 C.ar  225  TYR225      0.1957
    129  OH        25.6670   10.6430   18.8110 O.3   225  TYR225     -0.2866
@<TRIPOS>BOND
     1     4     3    2
     2     3     2    1
     3     2     1    1
     4     2     5    1
     5     5     6    1
     6     8     6   ar
     7     8    10   ar
     8    39    38    1
     9     6     7   ar
    10    38    37    1
    11    10     9   ar
    12     7     9   ar
    13    43    42    2
    14    37    36    1
    15    44    45    1
    16    44    41    1
    17    34    33    2
    18    35    36    1
    19    35    32    1
    20    33    32    1
    21    42    41    1
    22    41    40    1
    23    32    31    1
    24    56    55    2
    25    31    27   am
    26    49    48    2
    27    28    27    2
    28    27    26    1
    29    55    54    1
    30    55    59   am
    31    58    57    1
    32    54    57    1
    33    54    53    1
    34    63    60    1
    35    63    64    1
    36    30    29    1
    37    30    95    1
    38    48    53   am
    39    48    47    1
    40    60    59    1
    41    60    61    1
    42    29    26    1
    43    51    50    1
    44    50    47    1
    45    50    52    1
    46    26    25    1
    47    64    65   ar
    48    64    66   ar
    49    65    67   ar
    50    95    94    1
    51    47    46    1
    52    76    75    2
    53    73    61   am
    54    73    74    1
    55    25    21   am
    56    66    69   ar
    57    66    68   ar
    58    67    68   ar
    59    61    62    2
    60    87    86    1
    61    87    88    1
    62    86    79   am
    63    69    71   ar
    64    85    83   am
    65    68    70   ar
    66    89    88    2
    67    88    90   am
    68    75    74    1
    69    75    77   am
    70    94    91    1
    71    84    83    2
    72    71    72   ar
    73    83    82    1
    74    21    22    2
    75    21    20    1
    76    90    91    1
    77    79    78    1
    78    79    80    2
    79    78    77    1
    80    78    81    1
    81    70    72   ar
    82   114   113    2
    83    91    92    1
    84    23    24    1
    85    23    20    1
    86   120   119    1
    87   120   121    2
    88    20    19    1
    89    82    81    1
    90   119   118    1
    91   119   122    1
    92   113   118   am
    93   113   112    1
    94   115   116    1
    95   115   112    1
    96   115   117    1
    97    93    92    2
    98   125   127   ar
    99   125   123   ar
   100   127   128   ar
   101   122   123    1
   102   112   111    1
   103    19    13   am
   104   111   109   am
   105    14    13    2
   106   123   124   ar
   107    13    12    1
   108    18    16   ar
   109   128   129    1
   110   128   126   ar
   111    17    16   ar
   112    16    15    1
   113   109   108    1
   114   109   110    2
   115   108   107    1
   116   124   126   ar
   117    15    12    1
   118    99    98    2
   119    12    11    1
   120   107    98   am
   121    98    97    1
   122    96    97    1
   123    97   100    1
   124   100   101    1
   125   101   103   ar
   126   101   102   ar
   127   103   105   ar
   128   102   104   ar
   129   105   106   ar
   130   104   106   ar
