@<TRIPOS>MOLECULE
tmp/2a2xB00.pdb
 217 220 0 0 0
SMALL
GASTEIGER

@<TRIPOS>ATOM
      1  N         22.5570   27.1780   18.4460 N.3    43  HIS43      -0.1241
      2  CA        22.4580   25.8020   17.9640 C.3    43  HIS43       0.1621
      3  C         21.7460   25.7030   16.6230 C.2    43  HIS43       0.2264
      4  O         21.6780   24.6270   16.0300 O.2    43  HIS43      -0.2867
      5  CB        21.7480   24.8970   18.9880 C.3    43  HIS43       0.0745
      6  CG        20.2560   25.0540   19.0240 C.ar   43  HIS43       0.0817
      7  ND1       19.6080   25.8360   19.9570 N.ar   43  HIS43      -0.2268
      8  CD2       19.2850   24.5240   18.2420 C.ar   43  HIS43       0.1154
      9  CE1       18.3040   25.7790   19.7480 C.ar   43  HIS43       0.1986
     10  NE2       18.0820   24.9910   18.7130 N.ar   43  HIS43      -0.2212
     11  N         26.0590   23.0440   15.6320 N.3    47  TYR47      -0.1241
     12  CA        25.7720   21.9330   16.5290 C.3    47  TYR47       0.1605
     13  C         26.3350   20.6380   15.9320 C.2    47  TYR47       0.2264
     14  O         25.6160   19.8640   15.2920 O.2    47  TYR47      -0.2867
     15  CB        24.2640   21.7970   16.7610 C.3    47  TYR47       0.0534
     16  CG        23.9470   20.8640   17.9000 C.ar   47  TYR47      -0.0201
     17  CD1       24.4400   21.1150   19.1760 C.ar   47  TYR47      -0.0009
     18  CD2       23.2100   19.7080   17.6970 C.ar   47  TYR47      -0.0009
     19  CE1       24.2150   20.2370   20.2170 C.ar   47  TYR47       0.0417
     20  CE2       22.9780   18.8220   18.7340 C.ar   47  TYR47       0.0417
     21  CZ        23.4870   19.0930   19.9920 C.ar   47  TYR47       0.1957
     22  OH        23.2850   18.2060   21.0220 O.3    47  TYR47      -0.2866
     23  N         25.0560   16.9150   15.3390 N.3    50  TRP50      -0.1241
     24  CA        24.1570   16.6830   14.2070 C.3    50  TRP50       0.1605
     25  C         24.7730   17.2020   12.9170 C.2    50  TRP50       0.2264
     26  O         24.0680   17.4530   11.9410 O.2    50  TRP50      -0.2867
     27  CB        22.8110   17.3770   14.4190 C.3    50  TRP50       0.0550
     28  CG        22.0090   16.8420   15.5640 C.ar   50  TRP50       0.0003
     29  CD1       22.2410   15.6960   16.2640 C.ar   50  TRP50       0.0946
     30  CD2       20.8240   17.4250   16.1270 C.ar   50  TRP50       0.0152
     31  NE1       21.2740   15.5260   17.2300 N.ar   50  TRP50      -0.2442
     32  CE2       20.3930   16.5740   17.1660 C.ar   50  TRP50       0.0810
     33  CE3       20.0860   18.5820   15.8530 C.ar   50  TRP50       0.0012
     34  CZ2       19.2580   16.8430   17.9330 C.ar   50  TRP50       0.0191
     35  CZ3       18.9590   18.8470   16.6170 C.ar   50  TRP50       0.0001
     36  CH2       18.5570   17.9800   17.6440 C.ar   50  TRP50       0.0015
     37  N         28.2240   23.8860   23.2690 N.3    92  TRP92      -0.1227
     38  CA        27.3750   22.8920   22.6160 C.3    92  TRP92       0.1737
     39  C         27.7640   21.4850   23.0540 C.2    92  TRP92       0.2595
     40  O         27.0010   20.5390   22.8780 O.2    92  TRP92      -0.2718
     41  CB        27.4990   22.9890   21.0930 C.3    92  TRP92       0.0564
     42  CG        28.9190   22.9890   20.6110 C.ar   92  TRP92       0.0003
     43  CD1       29.7100   24.0800   20.3860 C.ar   92  TRP92       0.0946
     44  CD2       29.7340   21.8400   20.3370 C.ar   92  TRP92       0.0152
     45  NE1       30.9640   23.6830   19.9880 N.ar   92  TRP92      -0.2442
     46  CE2       31.0050   22.3130   19.9510 C.ar   92  TRP92       0.0810
     47  CE3       29.5130   20.4590   20.3830 C.ar   92  TRP92       0.0012
     48  CZ2       32.0510   21.4530   19.6130 C.ar   92  TRP92       0.0191
     49  CZ3       30.5510   19.6060   20.0500 C.ar   92  TRP92       0.0001
     50  CH2       31.8040   20.1070   19.6690 C.ar   92  TRP92       0.0015
     51  N         28.9520   21.3570   23.6320 N.am   93  ARG93      -0.1966
     52  CA        29.4550   20.0690   24.0870 C.3    93  ARG93       0.1729
     53  C         28.7800   19.5190   25.3280 C.2    93  ARG93       0.2616
     54  O         28.5950   18.3120   25.4450 O.2    93  ARG93      -0.2715
     55  CB        30.9530   20.1580   24.3880 C.3    93  ARG93       0.0348
     56  CG        31.8220   20.4790   23.2030 C.3    93  ARG93       0.0492
     57  CD        33.2760   20.5640   23.6060 C.3    93  ARG93       0.2205
     58  NE        34.1180   19.8490   22.6540 N.pl3  93  ARG93      -0.0865
     59  CZ        34.1310   18.5240   22.5200 C.cat  93  ARG93       0.5346
     60  NH1       33.3530   17.7630   23.2820 N.pl3  93  ARG93       0.1354
     61  NH2       34.9140   17.9560   21.6130 N.pl3  93  ARG93       0.1354
     62  N         28.4000   20.3910   26.2530 N.am   94  GLU94      -0.1963
     63  CA        27.8290   19.9100   27.5030 C.3    94  GLU94       0.1733
     64  C         26.3660   20.1490   27.8370 C.2    94  GLU94       0.2616
     65  O         25.6200   19.1990   28.0530 O.2    94  GLU94      -0.2715
     66  CB        28.6790   20.4370   28.6530 C.3    94  GLU94       0.0429
     67  CG        28.1700   20.0700   30.0160 C.3    94  GLU94       0.1163
     68  CD        28.9830   20.7210   31.1140 C.2    94  GLU94       0.3649
     69  OE1       28.6540   20.5080   32.3030 O.co2  94  GLU94      -0.2457
     70  OE2       29.9520   21.4460   30.7860 O.co2  94  GLU94      -0.2457
     71  N         25.9500   21.4090   27.8960 N.am   95  ASN95      -0.1958
     72  CA        24.5730   21.7130   28.2690 C.3    95  ASN95       0.1819
     73  C         23.9290   22.8170   27.4440 C.2    95  ASN95       0.2621
     74  O         22.8820   23.3450   27.8200 O.2    95  ASN95      -0.2715
     75  CB        24.5370   22.1030   29.7480 C.3    95  ASN95       0.1195
     76  CG        25.4910   23.2430   30.0650 C.2    95  ASN95       0.2630
     77  OD1       26.2080   23.7260   29.1880 O.2    95  ASN95      -0.2716
     78  ND2       25.5010   23.6810   31.3160 N.am   95  ASN95      -0.0877
     79  N         24.5580   23.1730   26.3260 N.am   96  LEU96      -0.1977
     80  CA        24.0320   24.2160   25.4510 C.3    96  LEU96       0.1596
     81  C         24.0310   25.5900   26.1450 C.2    96  LEU96       0.2287
     82  O         23.2210   26.4650   25.8290 O.2    96  LEU96      -0.2864
     83  CB        22.6140   23.8310   25.0080 C.3    96  LEU96       0.0297
     84  CG        22.2710   23.8230   23.5170 C.3    96  LEU96       0.0022
     85  CD1       23.4360   23.3050   22.7010 C.3    96  LEU96       0.0001
     86  CD2       21.0370   22.9610   23.2980 C.3    96  LEU96       0.0001
     87  N         20.4850   17.2780   33.0250 N.3   172  ILE172     -0.1245
     88  CA        21.3530   18.2630   32.3920 C.3   172  ILE172      0.1561
     89  C         21.7180   19.3700   33.3820 C.2   172  ILE172      0.2260
     90  O         20.8700   19.8440   34.1440 O.2   172  ILE172     -0.2867
     91  CB        20.6610   18.8890   31.1590 C.3   172  ILE172      0.0252
     92  CG1       20.4180   17.8050   30.1090 C.3   172  ILE172      0.0019
     93  CG2       21.5150   20.0140   30.5840 C.3   172  ILE172      0.0019
     94  CD1       21.6910   17.1040   29.6580 C.3   172  ILE172      0.0001
     95  N          3.9720   23.9700   25.1070 N.3   192  ASP192     -0.1225
     96  CA         5.4310   24.0230   25.0740 C.3   192  ASP192      0.1805
     97  C          5.9340   24.3630   23.6610 C.2   192  ASP192      0.2598
     98  O          5.1600   24.3880   22.7000 O.2   192  ASP192     -0.2718
     99  CB         5.9680   22.6390   25.4930 C.3   192  ASP192      0.1424
    100  CG         7.4760   22.6140   25.7270 C.2   192  ASP192      0.3668
    101  OD1        8.0370   21.4920   25.7950 O.co2 192  ASP192     -0.2456
    102  OD2        8.0960   23.6950   25.8570 O.co2 192  ASP192     -0.2456
    103  N          7.2290   24.6450   23.5440 N.am  193  ALA193     -0.1966
    104  CA         7.8310   24.8930   22.2390 C.3   193  ALA193      0.1728
    105  C          8.2030   23.4860   21.7570 C.2   193  ALA193      0.2616
    106  O          7.9740   22.5020   22.4620 O.2   193  ALA193     -0.2715
    107  CB         9.0850   25.7500   22.3730 C.3   193  ALA193      0.0334
    108  N          8.7740   23.3770   20.5680 N.am  194  CYS194     -0.1954
    109  CA         9.1460   22.0670   20.0670 C.3   194  CYS194      0.1843
    110  C         10.1020   22.2590   18.9080 C.2   194  CYS194      0.2625
    111  O         10.4160   23.3950   18.5470 O.2   194  CYS194     -0.2714
    112  CB         7.8850   21.3190   19.6090 C.3   194  CYS194      0.0997
    113  SG         8.0590   19.5080   19.4560 S.3   194  CYS194     -0.0797
    114  N         10.5730   21.1490   18.3430 N.am  195  GLU195     -0.1977
    115  CA        11.4730   21.1990   17.1990 C.3   195  GLU195      0.1602
    116  C         10.8800   22.1880   16.1950 C.2   195  GLU195      0.2287
    117  O          9.6770   22.1730   15.9540 O.2   195  GLU195     -0.2864
    118  CB        11.5860   19.8030   16.5660 C.3   195  GLU195      0.0415
    119  CG        12.4220   19.7390   15.2870 C.3   195  GLU195      0.1163
    120  CD        12.6320   18.3150   14.7760 C.2   195  GLU195      0.3649
    121  OE1       13.2170   18.1550   13.6790 O.co2 195  GLU195     -0.2457
    122  OE2       12.2220   17.3550   15.4700 O.co2 195  GLU195     -0.2457
    123  N         13.0170   26.5850   17.6640 N.3   198  SER198     -0.1217
    124  CA        14.3570   27.0110   18.0830 C.3   198  SER198      0.1889
    125  C         14.7140   28.4160   17.6310 C.2   198  SER198      0.2288
    126  O         14.3880   28.8100   16.5160 O.2   198  SER198     -0.2866
    127  CB        15.4200   26.0590   17.5190 C.3   198  SER198      0.2089
    128  OG        15.3610   24.7790   18.1130 O.3   198  SER198     -0.2183
    129  N         14.1550   30.4210   22.5410 N.3   218  VAL218     -0.1231
    130  CA        13.8860   28.9840   22.6060 C.3   218  VAL218      0.1692
    131  C         15.1940   28.2130   22.4010 C.2   218  VAL218      0.2593
    132  O         15.7450   28.2020   21.3080 O.2   218  VAL218     -0.2718
    133  CB        12.8580   28.5510   21.5310 C.3   218  VAL218      0.0266
    134  CG1       12.6760   27.0180   21.5650 C.3   218  VAL218      0.0020
    135  CG2       11.5230   29.2480   21.7730 C.3   218  VAL218      0.0020
    136  N         15.6750   27.5650   23.4570 N.am  219  SER219     -0.1938
    137  CA        16.9380   26.8310   23.4040 C.3   219  SER219      0.2055
    138  C         16.8110   25.3050   23.2830 C.2   219  SER219      0.2643
    139  O         17.0600   24.7380   22.2140 O.2   219  SER219     -0.2714
    140  CB        17.7750   27.1750   24.6410 C.3   219  SER219      0.2130
    141  OG        19.1350   26.8380   24.4480 O.3   219  SER219     -0.2179
    142  N         16.4320   24.6420   24.3720 N.am  220  TRP220     -0.1959
    143  CA        16.3080   23.1870   24.3560 C.3   220  TRP220      0.1771
    144  C         15.1980   22.6590   25.2380 C.2   220  TRP220      0.2620
    145  O         14.5600   23.4010   25.9840 O.2   220  TRP220     -0.2715
    146  CB        17.6230   22.5250   24.7960 C.3   220  TRP220      0.0590
    147  CG        18.1060   22.9360   26.1770 C.ar  220  TRP220      0.0006
    148  CD1       18.7580   24.0940   26.5070 C.ar  220  TRP220      0.0946
    149  CD2       17.9760   22.1910   27.3980 C.ar  220  TRP220      0.0152
    150  NE1       19.0440   24.1130   27.8520 N.ar  220  TRP220     -0.2442
    151  CE2       18.5740   22.9580   28.4220 C.ar  220  TRP220      0.0810
    152  CE3       17.4120   20.9530   27.7260 C.ar  220  TRP220      0.0012
    153  CZ2       18.6270   22.5220   29.7510 C.ar  220  TRP220      0.0191
    154  CZ3       17.4640   20.5220   29.0460 C.ar  220  TRP220      0.0001
    155  CH2       18.0660   21.3060   30.0400 C.ar  220  TRP220      0.0015
    156  N         14.9990   21.3510   25.1450 N.am  221  GLY221     -0.1940
    157  CA        13.9900   20.6680   25.9290 C.3   221  GLY221      0.2014
    158  C         14.1670   19.1750   25.7330 C.2   221  GLY221      0.2639
    159  O         14.9370   18.7440   24.8740 O.2   221  GLY221     -0.2714
    160  N         13.4810   18.3780   26.5370 N.am  222  GLU222     -0.1963
    161  CA        13.5610   16.9270   26.4150 C.3   222  GLU222      0.1733
    162  C         12.1700   16.4750   25.9940 C.2   222  GLU222      0.2617
    163  O         11.2870   16.2470   26.8270 O.2   222  GLU222     -0.2715
    164  CB        13.9740   16.3170   27.7580 C.3   222  GLU222      0.0429
    165  CG        15.3810   16.7480   28.1820 C.3   222  GLU222      0.1163
    166  CD        15.7380   16.3550   29.6020 C.2   222  GLU222      0.3649
    167  OE1       15.1170   16.8830   30.5470 O.co2 222  GLU222     -0.2457
    168  OE2       16.6450   15.5170   29.7680 O.co2 222  GLU222     -0.2457
    169  N         11.9850   16.3620   24.6830 N.am  223  GLY223     -0.1940
    170  CA        10.6890   15.9960   24.1500 C.3   223  GLY223      0.2014
    171  C          9.9140   17.2950   23.9750 C.2   223  GLY223      0.2639
    172  O         10.5140   18.3700   23.8780 O.2   223  GLY223     -0.2714
    173  N          8.5890   17.2070   23.9420 N.am  224  CYS224     -0.1967
    174  CA         7.7420   18.3860   23.7810 C.3   224  CYS224      0.1712
    175  C          6.4570   18.2120   24.5800 C.2   224  CYS224      0.2296
    176  O          5.7390   17.2260   24.4190 O.2   224  CYS224     -0.2864
    177  CB         7.4010   18.6060   22.2990 C.3   224  CYS224      0.0983
    178  SG         8.8440   18.9570   21.2380 S.3   224  CYS224     -0.0798
    179  N         10.1550   20.6110   31.2730 N.3   230  TYR230     -0.1227
    180  CA         9.9830   22.0160   30.9440 C.3   230  TYR230      0.1736
    181  C         10.8720   22.5060   29.8070 C.2   230  TYR230      0.2596
    182  O         11.9030   21.9040   29.4960 O.2   230  TYR230     -0.2718
    183  CB        10.2470   22.8680   32.1870 C.3   230  TYR230      0.0548
    184  CG         9.3750   22.4990   33.3610 C.ar  230  TYR230     -0.0200
    185  CD1        9.7830   21.5500   34.2870 C.ar  230  TYR230     -0.0009
    186  CD2        8.1180   23.0690   33.5130 C.ar  230  TYR230     -0.0009
    187  CE1        8.9630   21.1790   35.3290 C.ar  230  TYR230      0.0417
    188  CE2        7.2880   22.7030   34.5510 C.ar  230  TYR230      0.0417
    189  CZ         7.7120   21.7590   35.4550 C.ar  230  TYR230      0.1957
    190  OH         6.8670   21.4010   36.4850 O.3   230  TYR230     -0.2866
    191  N         10.4660   23.6110   29.1890 N.am  231  GLY231     -0.1942
    192  CA        11.2490   24.1810   28.1140 C.3   231  GLY231      0.2014
    193  C         12.2980   25.1150   28.6930 C.2   231  GLY231      0.2639
    194  O         12.0390   25.8160   29.6700 O.2   231  GLY231     -0.2714
    195  N         13.4900   25.1120   28.1070 N.am  232  PHE232     -0.1959
    196  CA        14.5670   25.9730   28.5720 C.3   232  PHE232      0.1771
    197  C         14.8650   27.0600   27.5480 C.2   232  PHE232      0.2619
    198  O         14.8290   26.8270   26.3300 O.2   232  PHE232     -0.2715
    199  CB        15.8240   25.1460   28.8790 C.3   232  PHE232      0.0574
    200  CG        15.7150   24.3620   30.1490 C.ar  232  PHE232     -0.0200
    201  CD1       14.9140   23.2330   30.2160 C.ar  232  PHE232     -0.0042
    202  CD2       16.3280   24.8120   31.3110 C.ar  232  PHE232     -0.0042
    203  CE1       14.7220   22.5750   31.4220 C.ar  232  PHE232     -0.0003
    204  CE2       16.1400   24.1620   32.5160 C.ar  232  PHE232     -0.0003
    205  CZ        15.3350   23.0430   32.5720 C.ar  232  PHE232     -0.0000
    206  N         15.1550   28.2490   28.0650 N.am  233  TYR233     -0.1974
    207  CA        15.4240   29.4140   27.2420 C.3   233  TYR233      0.1639
    208  C         16.7050   30.1170   27.6420 C.2   233  TYR233      0.2290
    209  O         17.0980   30.1230   28.8090 O.2   233  TYR233     -0.2864
    210  CB        14.2570   30.4040   27.3620 C.3   233  TYR233      0.0560
    211  CG        12.9130   29.7920   27.0380 C.ar  233  TYR233     -0.0198
    212  CD1       12.2860   28.9130   27.9270 C.ar  233  TYR233     -0.0009
    213  CD2       12.2990   30.0320   25.8160 C.ar  233  TYR233     -0.0009
    214  CE1       11.0960   28.2920   27.6010 C.ar  233  TYR233      0.0417
    215  CE2       11.1130   29.4080   25.4830 C.ar  233  TYR233      0.0417
    216  CZ        10.5190   28.5390   26.3760 C.ar  233  TYR233      0.1957
    217  OH         9.3640   27.8860   26.0110 O.3   233  TYR233     -0.2866
@<TRIPOS>BOND
     1    26    25    2
     2    25    24    1
     3   121   120   ar
     4    24    27    1
     5    24    23    1
     6    27    28    1
     7   120   119    1
     8   120   122   ar
     9   119   118    1
    10    14    13    2
    11    28    30   ar
    12    28    29   ar
    13    11    12    1
    14    33    30   ar
    15    33    35   ar
    16    13    12    1
    17   117   116    2
    18     4     3    2
    19    30    32   ar
    20   116   115    1
    21    29    31   ar
    22   126   125    2
    23    12    15    1
    24   118   115    1
    25    35    36   ar
    26     3     2    1
    27    15    16    1
    28    32    31   ar
    29    32    34   ar
    30   115   114    1
    31   127   124    1
    32   127   128    1
    33   125   124    1
    34    36    34   ar
    35   123   124    1
    36    18    16   ar
    37    18    20   ar
    38    16    17   ar
    39     2     1    1
    40     2     5    1
    41     8    10   ar
    42     8     6   ar
    43   114   110   am
    44   111   110    2
    45    10     9   ar
    46    20    21   ar
    47   110   109    1
    48     5     6    1
    49     6     7   ar
    50    17    19   ar
    51   113   112    1
    52   113   178    1
    53   112   109    1
    54    48    50   ar
    55    48    46   ar
    56    50    49   ar
    57     9     7   ar
    58    46    45   ar
    59    46    44   ar
    60    45    43   ar
    61    21    19   ar
    62    21    22    1
    63    49    47   ar
    64   109   108    1
    65    44    47   ar
    66    44    42   ar
    67    43    42   ar
    68   108   105   am
    69    42    41    1
    70    41    38    1
    71   178   177    1
    72   132   131    2
    73   133   134    1
    74   133   135    1
    75   133   130    1
    76    61    59    1
    77   105   104    1
    78   105   106    2
    79   139   138    2
    80   104   107    1
    81   104   103    1
    82   177   174    1
    83   131   130    1
    84   131   136   am
    85    59    58    2
    86    59    60    1
    87   129   130    1
    88    38    39    1
    89    38    37    1
    90    58    57    1
    91    98    97    2
    92    85    84    1
    93    40    39    2
    94    39    51   am
    95    56    57    1
    96    56    55    1
    97   138   137    1
    98   138   142   am
    99    86    84    1
   100   137   136    1
   101   137   140    1
   102    84    83    1
   103   103    97   am
   104    51    52    1
   105    97    96    1
   106   174   173    1
   107   174   175    1
   108   172   171    2
   109   173   171   am
   110   171   170    1
   111    52    55    1
   112    52    53    1
   113   170   169    1
   114   143   142    1
   115   143   146    1
   116   143   144    1
   117   176   175    2
   118   141   140    1
   119   169   162   am
   120   146   147    1
   121   159   158    2
   122    83    80    1
   123    96    95    1
   124    96    99    1
   125   156   144   am
   126   156   157    1
   127   144   145    2
   128    53    54    2
   129    53    62   am
   130    80    81    1
   131    80    79    1
   132   215   213   ar
   133   215   216   ar
   134    99   100    1
   135   100   101   ar
   136   100   102   ar
   137   158   157    1
   138   158   160   am
   139   213   211   ar
   140    82    81    2
   141   162   161    1
   142   162   163    2
   143   217   216    1
   144   147   148   ar
   145   147   149   ar
   146    62    63    1
   147    79    73   am
   148   198   197    2
   149   216   214   ar
   150   161   160    1
   151   161   164    1
   152   148   150   ar
   153   211   210    1
   154   211   212   ar
   155   207   210    1
   156   207   208    1
   157   207   206    1
   158   149   152   ar
   159   149   151   ar
   160    73    74    2
   161    73    72    1
   162    63    64    1
   163    63    66    1
   164   197   206   am
   165   197   196    1
   166   214   212   ar
   167   208   209    2
   168   152   154   ar
   169   164   165    1
   170    64    71   am
   171    64    65    2
   172   150   151   ar
   173    71    72    1
   174   195   196    1
   175   195   193   am
   176   192   193    1
   177   192   191    1
   178   165   166    1
   179    72    75    1
   180   151   153   ar
   181   196   199    1
   182    66    67    1
   183   193   194    2
   184   199   200    1
   185   154   155   ar
   186    77    76    2
   187   191   181   am
   188   182   181    2
   189   166   168   ar
   190   166   167   ar
   191    94    92    1
   192    75    76    1
   193   153   155   ar
   194   181   180    1
   195    67    68    1
   196    76    78   am
   197    92    91    1
   198   200   201   ar
   199   200   202   ar
   200   201   203   ar
   201    93    91    1
   202    70    68   ar
   203   180   179    1
   204   180   183    1
   205    68    69   ar
   206    91    88    1
   207   202   204   ar
   208   203   205   ar
   209   183   184    1
   210    88    87    1
   211    88    89    1
   212   204   205   ar
   213   184   186   ar
   214   184   185   ar
   215    89    90    2
   216   186   188   ar
   217   185   187   ar
   218   188   189   ar
   219   187   189   ar
   220   189   190    1
