@<TRIPOS>MOLECULE
tmp/2a3lA00.pdb
 194 186 0 0 0
SMALL
GASTEIGER

@<TRIPOS>ATOM
      1  N        -20.9680  -30.6960  -16.7850 N.3   170  HIS170     -0.1241
      2  CA       -20.2070  -30.5600  -15.5710 C.3   170  HIS170      0.1621
      3  C        -19.0440  -29.6580  -15.9580 C.2   170  HIS170      0.2264
      4  O        -18.2610  -29.9390  -16.8700 O.2   170  HIS170     -0.2867
      5  CB       -19.7540  -31.9390  -15.1080 C.3   170  HIS170      0.0745
      6  CG       -20.8790  -32.7950  -14.6330 C.ar  170  HIS170      0.0817
      7  ND1      -21.3530  -32.7430  -13.3450 N.ar  170  HIS170     -0.2268
      8  CD2      -21.6910  -33.6530  -15.3030 C.ar  170  HIS170      0.1154
      9  CE1      -22.4050  -33.5340  -13.2550 C.ar  170  HIS170      0.1986
     10  NE2      -22.5870  -34.0590  -14.4260 N.ar  170  HIS170     -0.2212
     11  N        -15.2610  -30.7600  -17.2090 N.3   173  ALA173     -0.1245
     12  CA       -15.1830  -31.7440  -18.2670 C.3   173  ALA173      0.1562
     13  C        -15.5080  -31.0420  -19.5620 C.2   173  ALA173      0.2260
     14  O        -15.3410  -31.5910  -20.6390 O.2   173  ALA173     -0.2867
     15  CB       -16.1640  -32.8210  -18.0030 C.3   173  ALA173      0.0290
     16  N        -11.7880  -44.1880  -10.3780 N.3   238  ASP238     -0.1225
     17  CA       -12.7900  -44.6540  -11.2590 C.3   238  ASP238      0.1805
     18  C        -13.0690  -43.4060  -12.0610 C.2   238  ASP238      0.2598
     19  O        -12.2740  -43.0630  -12.9530 O.2   238  ASP238     -0.2718
     20  CB       -14.0180  -45.1060  -10.4660 C.3   238  ASP238      0.1424
     21  CG       -14.5340  -44.0460   -9.5280 C.2   238  ASP238      0.3668
     22  OD1      -13.8140  -43.0620   -9.2890 O.co2 238  ASP238     -0.2456
     23  OD2      -15.6640  -44.2030   -9.0240 O.co2 238  ASP238     -0.2456
     24  N        -14.1280  -42.6790  -11.6950 N.am  239  LYS239     -0.1966
     25  CA       -14.5230  -41.5200  -12.4600 C.3   239  LYS239      0.1728
     26  C        -15.3010  -40.5470  -11.6540 C.2   239  LYS239      0.2616
     27  O        -15.1160  -39.3670  -11.7970 O.2   239  LYS239     -0.2715
     28  CB       -15.3510  -41.9860  -13.6570 C.3   239  LYS239      0.0311
     29  CG       -16.1140  -40.8980  -14.3950 C.3   239  LYS239      0.0038
     30  CD       -17.6200  -40.7960  -13.9730 C.3   239  LYS239      0.0206
     31  CE       -18.6360  -41.0990  -15.1190 C.3   239  LYS239      0.1093
     32  NZ       -18.4880  -40.3210  -16.3900 N.3   239  LYS239     -0.1314
     33  N        -16.1880  -41.0370  -10.8160 N.am  240  PHE240     -0.1974
     34  CA       -16.9950  -40.1560  -10.0020 C.3   240  PHE240      0.1639
     35  C        -16.1230  -39.4900   -8.9900 C.2   240  PHE240      0.2290
     36  O        -16.2830  -38.3030   -8.7020 O.2   240  PHE240     -0.2864
     37  CB       -18.0630  -40.9590   -9.3100 C.3   240  PHE240      0.0560
     38  CG       -18.9680  -41.6130  -10.2620 C.ar  240  PHE240     -0.0200
     39  CD1      -20.1730  -41.0220  -10.6000 C.ar  240  PHE240     -0.0042
     40  CD2      -18.5560  -42.7530  -10.9370 C.ar  240  PHE240     -0.0042
     41  CE1      -20.9550  -41.5470  -11.6050 C.ar  240  PHE240     -0.0003
     42  CE2      -19.3260  -43.2900  -11.9470 C.ar  240  PHE240     -0.0003
     43  CZ       -20.5320  -42.6840  -12.2870 C.ar  240  PHE240     -0.0000
     44  N        -12.9630  -39.1250   -9.3630 N.3   242  LEU242     -0.1231
     45  CA       -12.0770  -38.2830  -10.1080 C.3   242  LEU242      0.1693
     46  C        -12.6220  -36.8710  -10.3650 C.2   242  LEU242      0.2592
     47  O        -11.8700  -35.9980  -10.8170 O.2   242  LEU242     -0.2718
     48  CB       -11.7360  -38.9790  -11.4080 C.3   242  LEU242      0.0284
     49  CG       -10.2880  -39.4360  -11.5260 C.3   242  LEU242      0.0019
     50  CD1      -10.1650  -40.6830  -12.3950 C.3   242  LEU242      0.0001
     51  CD2       -9.4960  -38.2780  -12.1170 C.3   242  LEU242      0.0001
     52  N        -13.9050  -36.6250  -10.0700 N.am  243  LYS243     -0.1966
     53  CA       -14.4840  -35.2910  -10.2830 C.3   243  LYS243      0.1728
     54  C        -15.3500  -34.8530   -9.0950 C.2   243  LYS243      0.2616
     55  O        -15.3990  -33.6640   -8.7410 O.2   243  LYS243     -0.2715
     56  CB       -15.2630  -35.3060  -11.5960 C.3   243  LYS243      0.0311
     57  CG       -15.5260  -34.0000  -12.3700 C.3   243  LYS243      0.0038
     58  CD       -16.6710  -33.1130  -11.7980 C.3   243  LYS243      0.0206
     59  CE       -16.6790  -31.6850  -12.4420 C.3   243  LYS243      0.1093
     60  NZ       -17.6860  -30.7210  -11.8630 N.3   243  LYS243     -0.1314
     61  N        -15.9850  -35.8260   -8.4550 N.am  244  TYR244     -0.1974
     62  CA       -16.8200  -35.5720   -7.2810 C.3   244  TYR244      0.1639
     63  C        -16.1220  -35.4610   -5.9080 C.2   244  TYR244      0.2290
     64  O        -16.5700  -34.7180   -5.0200 O.2   244  TYR244     -0.2864
     65  CB       -17.8980  -36.6300   -7.2270 C.3   244  TYR244      0.0560
     66  CG       -18.9440  -36.3400   -8.2290 C.ar  244  TYR244     -0.0198
     67  CD1      -19.8070  -37.3330   -8.6670 C.ar  244  TYR244     -0.0009
     68  CD2      -19.0740  -35.0560   -8.7430 C.ar  244  TYR244     -0.0009
     69  CE1      -20.7760  -37.0590   -9.6030 C.ar  244  TYR244      0.0417
     70  CE2      -20.0260  -34.7640   -9.6590 C.ar  244  TYR244      0.0417
     71  CZ       -20.8750  -35.7740  -10.0990 C.ar  244  TYR244      0.1957
     72  OH       -21.7410  -35.4890  -11.1100 O.3   244  TYR244     -0.2866
     73  N         -4.1910  -32.0230  -12.0140 N.3   253  ARG253     -0.1245
     74  CA        -5.6120  -31.8220  -11.7820 C.3   253  ARG253      0.1563
     75  C         -5.8880  -30.7240  -10.7370 C.2   253  ARG253      0.2260
     76  O         -6.8250  -29.9180  -10.8710 O.2   253  ARG253     -0.2867
     77  CB        -6.2150  -33.1630  -11.3870 C.3   253  ARG253      0.0307
     78  CG        -7.4970  -33.1140  -10.6410 C.3   253  ARG253      0.0489
     79  CD        -8.3020  -34.3620  -10.9290 C.3   253  ARG253      0.2205
     80  NE        -9.2430  -34.0770  -11.9980 N.pl3 253  ARG253     -0.0865
     81  CZ        -9.3490  -34.7650  -13.1270 C.cat 253  ARG253      0.5346
     82  NH1       -8.5660  -35.8160  -13.3600 N.pl3 253  ARG253      0.1354
     83  NH2      -10.2400  -34.3760  -14.0360 N.pl3 253  ARG253      0.1354
     84  N        -25.0130  -34.7640   -6.4760 N.3   377  VAL377     -0.1231
     85  CA       -24.4690  -35.9810   -7.1330 C.3   377  VAL377      0.1692
     86  C        -23.7170  -37.1740   -6.4850 C.2   377  VAL377      0.2592
     87  O        -23.6930  -37.3540   -5.2750 O.2   377  VAL377     -0.2718
     88  CB       -23.5420  -35.5430   -8.2080 C.3   377  VAL377      0.0266
     89  CG1      -24.2770  -34.8730   -9.2990 C.3   377  VAL377      0.0020
     90  CG2      -22.5610  -34.6120   -7.5930 C.3   377  VAL377      0.0020
     91  N        -23.1300  -37.9820   -7.3820 N.am  378  ASP378     -0.1974
     92  CA       -22.2960  -39.1790   -7.1340 C.3   378  ASP378      0.1709
     93  C        -22.8460  -40.4560   -7.7400 C.2   378  ASP378      0.2293
     94  O        -24.0250  -40.5280   -8.0750 O.2   378  ASP378     -0.2864
     95  CB       -22.0340  -39.4500   -5.6520 C.3   378  ASP378      0.1436
     96  CG       -20.7490  -40.2470   -5.4330 C.2   378  ASP378      0.3671
     97  OD1      -20.6040  -40.9150   -4.3870 O.co2 378  ASP378     -0.2456
     98  OD2      -19.8650  -40.1840   -6.3160 O.co2 378  ASP378     -0.2456
     99  N        -24.6940  -43.1740   -8.6450 N.3   380  GLU380     -0.1245
    100  CA       -26.0270  -43.5390   -8.1940 C.3   380  GLU380      0.1567
    101  C        -26.1820  -44.9620   -7.6810 C.2   380  GLU380      0.2260
    102  O        -27.0780  -45.2490   -6.8730 O.2   380  GLU380     -0.2867
    103  CB       -27.0070  -43.3590   -9.3300 C.3   380  GLU380      0.0388
    104  CG       -27.2890  -41.9570   -9.7030 C.3   380  GLU380      0.1160
    105  CD       -28.7440  -41.6710   -9.5390 C.2   380  GLU380      0.3649
    106  OE1      -29.2270  -40.6970  -10.1450 O.co2 380  GLU380     -0.2457
    107  OE2      -29.3980  -42.4330   -8.7960 O.co2 380  GLU380     -0.2457
    108  N        -29.4530  -34.8790  -10.0570 N.3   436  HIS436     -0.1241
    109  CA       -28.9970  -35.8370  -11.0490 C.3   436  HIS436      0.1621
    110  C        -29.7940  -37.0150  -10.4670 C.2   436  HIS436      0.2264
    111  O        -29.6080  -37.3440   -9.3050 O.2   436  HIS436     -0.2867
    112  CB       -27.5000  -36.0890  -10.8860 C.3   436  HIS436      0.0745
    113  CG       -26.6450  -35.6500  -12.0350 C.ar  436  HIS436      0.0817
    114  ND1      -26.4800  -34.3310  -12.4050 N.ar  436  HIS436     -0.2268
    115  CD2      -25.7650  -36.3510  -12.7900 C.ar  436  HIS436      0.1154
    116  CE1      -25.5230  -34.2430  -13.3260 C.ar  436  HIS436      0.1986
    117  NE2      -25.0710  -35.4530  -13.5750 N.ar  436  HIS436     -0.2212
    118  N        -30.0970  -42.5610  -12.8450 N.3   439  GLU439     -0.1245
    119  CA       -29.1210  -42.9730  -13.8380 C.3   439  GLU439      0.1567
    120  C        -28.7100  -44.4140  -13.5670 C.2   439  GLU439      0.2260
    121  O        -28.2740  -45.1300  -14.4550 O.2   439  GLU439     -0.2867
    122  CB       -27.9130  -42.0680  -13.7580 C.3   439  GLU439      0.0388
    123  CG       -26.7960  -42.4530  -14.6740 C.3   439  GLU439      0.1160
    124  CD       -25.7070  -41.4280  -14.6440 C.2   439  GLU439      0.3649
    125  OE1      -25.5800  -40.7740  -13.5750 O.co2 439  GLU439     -0.2457
    126  OE2      -24.9960  -41.2920  -15.6690 O.co2 439  GLU439     -0.2457
    127  N        -31.0990  -37.4460  -15.0010 N.3   458  HIS458     -0.1241
    128  CA       -31.0510  -38.5860  -15.8580 C.3   458  HIS458      0.1621
    129  C        -32.2700  -39.3290  -16.3010 C.2   458  HIS458      0.2264
    130  O        -32.4940  -39.3900  -17.4850 O.2   458  HIS458     -0.2867
    131  CB       -29.9750  -39.5080  -15.3950 C.3   458  HIS458      0.0745
    132  CG       -28.6370  -39.1380  -15.9350 C.ar  458  HIS458      0.0817
    133  ND1      -28.3490  -39.1840  -17.2800 N.ar  458  HIS458     -0.2268
    134  CD2      -27.5130  -38.7030  -15.3220 C.ar  458  HIS458      0.1154
    135  CE1      -27.0990  -38.7930  -17.4690 C.ar  458  HIS458      0.1986
    136  NE2      -26.5720  -38.4960  -16.2990 N.ar  458  HIS458     -0.2212
    137  N        -22.8630  -40.2910  -22.9610 N.3   485  SER485     -0.1217
    138  CA       -22.1480  -40.5930  -21.7460 C.3   485  SER485      0.1889
    139  C        -22.7360  -41.8580  -21.1220 C.2   485  SER485      0.2288
    140  O        -22.0140  -42.8060  -20.8530 O.2   485  SER485     -0.2866
    141  CB       -22.2500  -39.4640  -20.7470 C.3   485  SER485      0.2089
    142  OG       -21.9910  -39.9610  -19.4400 O.3   485  SER485     -0.2183
    143  N        -23.0900  -47.3490  -17.4280 N.3   490  PHE490     -0.1241
    144  CA       -24.4470  -47.8200  -17.2250 C.3   490  PHE490      0.1605
    145  C        -25.3210  -48.3710  -18.3490 C.2   490  PHE490      0.2264
    146  O        -26.1950  -49.1950  -18.0710 O.2   490  PHE490     -0.2867
    147  CB       -25.2400  -46.7140  -16.5530 C.3   490  PHE490      0.0534
    148  CG       -24.4680  -45.9560  -15.5270 C.ar  490  PHE490     -0.0203
    149  CD1      -23.9100  -44.7120  -15.8380 C.ar  490  PHE490     -0.0042
    150  CD2      -24.3460  -46.4510  -14.2280 C.ar  490  PHE490     -0.0042
    151  CE1      -23.2490  -43.9620  -14.8690 C.ar  490  PHE490     -0.0003
    152  CE2      -23.6850  -45.7140  -13.2380 C.ar  490  PHE490     -0.0003
    153  CZ       -23.1370  -44.4640  -13.5590 C.ar  490  PHE490     -0.0000
    154  N        -22.6930  -33.8340  -20.4280 N.3   513  ASP513     -0.1225
    155  CA       -21.9920  -34.4520  -19.2860 C.3   513  ASP513      0.1805
    156  C        -20.5190  -34.0770  -19.1620 C.2   513  ASP513      0.2597
    157  O        -20.1830  -33.1360  -18.4690 O.2   513  ASP513     -0.2718
    158  CB       -22.0800  -35.9590  -19.3990 C.3   513  ASP513      0.1424
    159  CG       -22.4460  -36.6540  -18.1030 C.2   513  ASP513      0.3668
    160  OD1      -22.3770  -37.8980  -18.2030 O.co2 513  ASP513     -0.2456
    161  OD2      -22.8020  -36.0190  -17.0590 O.co2 513  ASP513     -0.2456
    162  N        -19.6560  -34.8410  -19.8390 N.am  514  ASP514     -0.1974
    163  CA       -18.2010  -34.6490  -19.8460 C.3   514  ASP514      0.1709
    164  C        -17.6590  -34.4960  -21.2520 C.2   514  ASP514      0.2293
    165  O        -17.0610  -35.4120  -21.7770 O.2   514  ASP514     -0.2864
    166  CB       -17.4830  -35.8490  -19.2510 C.3   514  ASP514      0.1436
    167  CG       -17.8560  -36.1100  -17.8340 C.2   514  ASP514      0.3671
    168  OD1      -17.5840  -37.2320  -17.3950 O.co2 514  ASP514     -0.2456
    169  OD2      -18.4060  -35.2220  -17.1600 O.co2 514  ASP514     -0.2456
    170  N        -15.0840  -33.5520  -22.2310 N.3   516  LEU516     -0.1231
    171  CA       -13.6600  -33.8230  -22.2560 C.3   516  LEU516      0.1693
    172  C        -13.4090  -35.2790  -22.5420 C.2   516  LEU516      0.2592
    173  O        -12.7110  -35.6290  -23.4920 O.2   516  LEU516     -0.2718
    174  CB       -13.0060  -33.4420  -20.9320 C.3   516  LEU516      0.0284
    175  CG       -11.6180  -32.8030  -21.0810 C.3   516  LEU516      0.0019
    176  CD1      -10.9330  -32.7580  -19.7690 C.3   516  LEU516      0.0001
    177  CD2      -10.7780  -33.5780  -22.0520 C.3   516  LEU516      0.0001
    178  N        -13.9980  -36.1270  -21.7130 N.am  517  GLN517     -0.1966
    179  CA       -13.8530  -37.5680  -21.8570 C.3   517  GLN517      0.1733
    180  C        -14.5720  -38.1140  -23.1110 C.2   517  GLN517      0.2616
    181  O        -14.0220  -38.8550  -23.9360 O.2   517  GLN517     -0.2715
    182  CB       -14.4330  -38.2380  -20.6060 C.3   517  GLN517      0.0408
    183  CG       -13.8210  -39.5600  -20.2830 C.3   517  GLN517      0.0908
    184  CD       -12.3470  -39.4160  -19.9320 C.2   517  GLN517      0.2608
    185  OE1      -11.6540  -40.4060  -19.7050 O.2   517  GLN517     -0.2717
    186  NE2      -11.8610  -38.1760  -19.8760 N.am  517  GLN517     -0.0878
    187  N        -15.8030  -37.6670  -23.2620 N.am  518  ILE518     -0.1977
    188  CA       -16.6870  -38.1280  -24.2910 C.3   518  ILE518      0.1596
    189  C        -16.5920  -37.7790  -25.7550 C.2   518  ILE518      0.2287
    190  O        -16.4440  -38.6830  -26.5620 O.2   518  ILE518     -0.2864
    191  CB       -18.1040  -37.8480  -23.8470 C.3   518  ILE518      0.0276
    192  CG1      -18.2410  -38.2380  -22.3680 C.3   518  ILE518      0.0022
    193  CG2      -19.0760  -38.5970  -24.7230 C.3   518  ILE518      0.0022
    194  CD1      -19.5410  -37.9880  -21.7650 C.3   518  ILE518      0.0001
@<TRIPOS>BOND
     1   190   189    2
     2   189   188    1
     3   193   191    1
     4   188   191    1
     5   188   187    1
     6   181   180    2
     7   191   192    1
     8   173   172    2
     9   187   180   am
    10   180   179    1
    11   137   138    1
    12   172   171    1
    13   172   178   am
    14   192   194    1
    15   171   170    1
    16   171   174    1
    17   177   175    1
    18   179   178    1
    19   179   182    1
    20   165   164    2
    21   138   139    1
    22   138   141    1
    23   164   163    1
    24   139   140    2
    25   175   174    1
    26   175   176    1
    27   141   142    1
    28    14    13    2
    29   182   183    1
    30   154   155    1
    31   183   184    1
    32   184   186   am
    33   184   185    2
    34   163   162    1
    35   163   166    1
    36   162   156   am
    37    13    12    1
    38   158   155    1
    39   158   159    1
    40   155   156    1
    41   166   167    1
    42   156   157    2
    43   145   146    2
    44   145   144    1
    45    12    15    1
    46    12    11    1
    47   160   159   ar
    48   159   161   ar
    49   167   168   ar
    50   167   169   ar
    51   130   129    2
    52   135   133   ar
    53   135   136   ar
    54   143   144    1
    55   133   132   ar
    56   144   147    1
    57     4     3    2
    58     1     2    1
    59   147   148    1
    60    32    31    1
    61   129   128    1
    62   136   134   ar
    63     3     2    1
    64   132   131    1
    65   132   134   ar
    66   128   131    1
    67   128   127    1
    68   149   148   ar
    69   149   151   ar
    70   126   124   ar
    71     2     5    1
    72   148   150   ar
    73     8     6   ar
    74     8    10   ar
    75    31    30    1
    76     5     6    1
    77   151   153   ar
    78   123   124    1
    79   123   122    1
    80   124   125   ar
    81     6     7   ar
    82   121   120    2
    83    10     9   ar
    84    29    30    1
    85    29    28    1
    86   150   152   ar
    87    83    81    1
    88   119   122    1
    89   119   120    1
    90   119   118    1
    91    28    25    1
    92   117   116   ar
    93   117   115   ar
    94   153   152   ar
    95    82    81    1
    96     7     9   ar
    97   116   114   ar
    98    81    80    2
    99    19    18    2
   100   115   113   ar
   101    25    24    1
   102    25    26    1
   103    59    60    1
   104    59    58    1
   105   114   113   ar
   106    50    49    1
   107    57    58    1
   108    57    56    1
   109    43    42   ar
   110    43    41   ar
   111    51    49    1
   112    18    24   am
   113    18    17    1
   114   113   112    1
   115    73    74    1
   116    80    79    1
   117    42    40   ar
   118    27    26    2
   119    74    77    1
   120    74    75    1
   121    26    33   am
   122    41    39   ar
   123    56    53    1
   124    49    48    1
   125    48    45    1
   126    77    78    1
   127    17    20    1
   128    17    16    1
   129    72    71    1
   130   109   112    1
   131   109   110    1
   132   109   108    1
   133    40    38   ar
   134    79    78    1
   135    76    75    2
   136    47    46    2
   137    33    34    1
   138    39    38   ar
   139   110   111    2
   140    20    21    1
   141    46    45    1
   142    46    52   am
   143    53    52    1
   144    53    54    1
   145    38    37    1
   146   106   105   ar
   147    45    44    1
   148    71    70   ar
   149    71    69   ar
   150    34    37    1
   151    34    35    1
   152   104   105    1
   153   104   103    1
   154    70    68   ar
   155    69    67   ar
   156   105   107   ar
   157    21    22   ar
   158    21    23   ar
   159   103   100    1
   160    89    88    1
   161    54    55    2
   162    54    61   am
   163    35    36    2
   164    68    66   ar
   165    67    66   ar
   166    99   100    1
   167    61    62    1
   168    66    65    1
   169    88    90    1
   170    88    85    1
   171   100   101    1
   172    94    93    2
   173    93    92    1
   174   101   102    2
   175    91    92    1
   176    91    86   am
   177    62    65    1
   178    62    63    1
   179    92    95    1
   180    85    86    1
   181    85    84    1
   182    86    87    2
   183    98    96   ar
   184    63    64    2
   185    95    96    1
   186    96    97   ar
