@<TRIPOS>MOLECULE
tmp/2a3pA01.pdb
 189 185 0 0 0
SMALL
GASTEIGER

@<TRIPOS>ATOM
      1  N         12.4420   -3.7570   -4.0730 N.3    10  MET10      -0.1245
      2  CA        11.6680   -4.0240   -2.8750 C.3    10  MET10       0.1570
      3  C         10.1980   -3.9060   -3.2630 C.2    10  MET10       0.2261
      4  O          9.6820   -2.8050   -3.4800 O.2    10  MET10      -0.2867
      5  CB        12.0440   -3.0340   -1.7620 C.3    10  MET10       0.0387
      6  CG        13.4670   -3.2270   -1.2320 C.3    10  MET10       0.0595
      7  SD        13.9360   -2.0510    0.0500 S.3    10  MET10      -0.1393
      8  CE        13.1500   -2.7620    1.4950 C.3    10  MET10       0.0692
      9  N         21.7570   -2.5270    8.6650 N.3    32  CYS32      -0.1221
     10  CA        20.4310   -2.8730    8.1520 C.3    32  CYS32       0.1808
     11  C         20.1490   -4.3690    8.3010 C.2    32  CYS32       0.2601
     12  O         19.0630   -4.7660    8.7230 O.2    32  CYS32      -0.2717
     13  CB        20.3040   -2.4480    6.6960 C.3    32  CYS32       0.0970
     14  SG        20.9300   -0.7480    6.3690 S.3    32  CYS32      -0.0800
     15  N         21.1230   -5.2010    7.9510 N.am   33  HIS33      -0.1961
     16  CA        20.9880   -6.6450    8.1480 C.3    33  HIS33       0.1787
     17  C         21.4040   -6.9910    9.5890 C.2    33  HIS33       0.2620
     18  O         22.3970   -7.6770    9.8200 O.2    33  HIS33      -0.2715
     19  CB        21.8280   -7.4050    7.1160 C.3    33  HIS33       0.0785
     20  CG        21.5150   -7.0570    5.6810 C.ar   33  HIS33       0.0821
     21  ND1       20.4450   -7.5950    4.9990 N.ar   33  HIS33      -0.2267
     22  CD2       22.1620   -6.2650    4.7890 C.ar   33  HIS33       0.1154
     23  CE1       20.4360   -7.1360    3.7570 C.ar   33  HIS33       0.1986
     24  NE2       21.4710   -6.3300    3.5990 N.ar   33  HIS33      -0.2212
     25  N         20.6590   -6.4690   10.5600 N.am   34  HIS34      -0.1960
     26  CA        20.9480   -6.6780   11.9790 C.3    34  HIS34       0.1772
     27  C         20.9230   -8.1770   12.2890 C.2    34  HIS34       0.2462
     28  O         20.0870   -8.8970   11.7240 O.2    34  HIS34      -0.2730
     29  CB        19.9140   -5.9330   12.8440 C.3    34  HIS34       0.0785
     30  CG        18.4940   -6.3580   12.6050 C.ar   34  HIS34       0.0821
     31  ND1       17.9170   -7.4160   13.2700 N.ar   34  HIS34      -0.2267
     32  CD2       17.5300   -5.8590   11.7900 C.ar   34  HIS34       0.1154
     33  CE1       16.6710   -7.5690   12.8590 C.ar   34  HIS34       0.1986
     34  NE2       16.4020   -6.6260   11.9720 N.ar   34  HIS34      -0.2212
     35  N         21.8320   -8.6590   13.1700 N.am   35  PRO35      -0.2716
     36  CA        21.8440  -10.0990   13.4850 C.3    35  PRO35       0.1536
     37  C         20.5780  -10.5300   14.2250 C.2    35  PRO35       0.2598
     38  O         19.9460   -9.7220   14.9000 O.2    35  PRO35      -0.2715
     39  CB        23.0960  -10.2780   14.3570 C.3    35  PRO35       0.0310
     40  CG        23.4150   -8.9070   14.8920 C.3    35  PRO35       0.0237
     41  CD        22.8680   -7.9050   13.9060 C.3    35  PRO35       0.0939
     42  N         20.1670  -11.7780   14.0440 N.am   36  VAL36      -0.1978
     43  CA        18.9930  -12.2760   14.7410 C.3    36  VAL36       0.1596
     44  C         19.3670  -13.5980   15.3350 C.2    36  VAL36       0.2287
     45  O         19.9410  -14.4530   14.6350 O.2    36  VAL36      -0.2864
     46  CB        17.7480  -12.4300   13.8390 C.3    36  VAL36       0.0276
     47  CG1       16.6000  -13.0830   14.6220 C.3    36  VAL36       0.0022
     48  CG2       17.3020  -11.0730   13.2820 C.3    36  VAL36       0.0022
     49  N         22.1550  -12.4110    9.5620 N.3    41  ASN41      -0.1240
     50  CA        20.8050  -12.3900    9.0580 C.3    41  ASN41       0.1653
     51  C         20.7290  -11.5670    7.7630 C.2    41  ASN41       0.2266
     52  O         20.6670  -10.3360    7.7970 O.2    41  ASN41      -0.2867
     53  CB        19.8790  -11.8520   10.1550 C.3    41  ASN41       0.1155
     54  CG        18.5670  -11.3250    9.6170 C.2    41  ASN41       0.2627
     55  OD1       17.9080  -11.9790    8.8100 O.2    41  ASN41      -0.2716
     56  ND2       18.1860  -10.1220   10.0600 N.am   41  ASN41      -0.0877
     57  N         18.3560  -12.3590    5.4170 N.3    43  ALA43      -0.1231
     58  CA        17.0130  -12.6440    4.9080 C.3    43  ALA43       0.1694
     59  C         16.2410  -11.3720    4.5730 C.2    43  ALA43       0.2592
     60  O         16.4760  -10.2940    5.1540 O.2    43  ALA43      -0.2718
     61  CB        16.2310  -13.4930    5.8920 C.3    43  ALA43       0.0304
     62  N         15.3020  -11.5080    3.6430 N.am   44  LYS44      -0.1966
     63  CA        14.4920  -10.3750    3.2300 C.3    44  LYS44       0.1728
     64  C         13.6540   -9.8950    4.4110 C.2    44  LYS44       0.2616
     65  O         13.0970  -10.6980    5.1540 O.2    44  LYS44      -0.2715
     66  CB        13.6490  -10.7380    2.0140 C.3    44  LYS44       0.0311
     67  CG        14.4960  -11.2920    0.8510 C.3    44  LYS44       0.0038
     68  CD        14.8530  -10.2230   -0.1890 C.3    44  LYS44       0.0206
     69  CE        13.9750  -10.3370   -1.4410 C.3    44  LYS44       0.1093
     70  NZ        12.5510   -9.9070   -1.2340 N.3    44  LYS44      -0.1314
     71  N         13.6170   -8.5780    4.5860 N.am   45  CYS45      -0.1968
     72  CA        12.9780   -7.9080    5.7250 C.3    45  CYS45       0.1712
     73  C         11.5620   -8.4100    6.0410 C.2    45  CYS45       0.2296
     74  O         11.2430   -8.6660    7.2020 O.2    45  CYS45      -0.2864
     75  CB        12.9960   -6.3880    5.5080 C.3    45  CYS45       0.0983
     76  SG        14.6520   -5.7630    5.0370 S.3    45  CYS45      -0.0798
     77  N         10.2210  -11.2970    5.5020 N.3    47  THR47      -0.1218
     78  CA        10.1450  -12.7510    5.7320 C.3    47  THR47       0.1862
     79  C          9.1250  -13.0880    6.8340 C.2    47  THR47       0.2287
     80  O          9.0050  -12.3600    7.8240 O.2    47  THR47      -0.2866
     81  CB        11.5440  -13.3340    6.1070 C.3    47  THR47       0.1770
     82  OG1       12.4660  -13.0830    5.0440 O.3    47  THR47      -0.2211
     83  CG2       11.4950  -14.8410    6.3790 C.3    47  THR47       0.0375
     84  N          7.3910  -14.1730   10.0000 N.3    49  GLY49      -0.1210
     85  CA         7.9060  -14.1520   11.3720 C.3    49  GLY49       0.1956
     86  C          8.8080  -12.9630   11.6480 C.2    49  GLY49       0.2612
     87  O          9.2920  -12.7980   12.7730 O.2    49  GLY49      -0.2717
     88  N          9.0300  -12.1280   10.6320 N.am   50  CYS50      -0.1956
     89  CA         9.9760  -11.0150   10.7370 C.3    50  CYS50       0.1843
     90  C          9.2510   -9.6640   10.6670 C.2    50  CYS50       0.2625
     91  O          8.5060   -9.3150   11.5890 O.2    50  CYS50      -0.2714
     92  CB        11.1050  -11.1510    9.6980 C.3    50  CYS50       0.0997
     93  SG        12.2020  -12.6250    9.9750 S.3    50  CYS50      -0.0797
     94  N          9.4530   -8.9070    9.5950 N.am   51  HIS51      -0.1973
     95  CA         8.7160   -7.6680    9.4260 C.3    51  HIS51       0.1656
     96  C          7.5560   -7.8790    8.4240 C.2    51  HIS51       0.2291
     97  O          7.5120   -7.2890    7.3300 O.2    51  HIS51      -0.2864
     98  CB         9.6720   -6.5110    9.0760 C.3    51  HIS51       0.0771
     99  CG        10.8310   -6.3800   10.0270 C.ar   51  HIS51       0.0820
    100  ND1       10.6800   -5.9550   11.3280 N.ar   51  HIS51      -0.2267
    101  CD2       12.1550   -6.6240    9.8640 C.ar   51  HIS51       0.1154
    102  CE1       11.8570   -5.9410   11.9260 C.ar   51  HIS51       0.1986
    103  NE2       12.7740   -6.3380   11.0590 N.ar   51  HIS51      -0.2212
    104  N          7.1580   -4.3740   16.4290 N.3    61  VAL61      -0.1231
    105  CA         8.4420   -4.6360   15.7760 C.3    61  VAL61       0.1692
    106  C          8.2920   -5.3400   14.4230 C.2    61  VAL61       0.2592
    107  O          9.2050   -5.3080   13.5960 O.2    61  VAL61      -0.2718
    108  CB         9.4310   -5.4050   16.7320 C.3    61  VAL61       0.0266
    109  CG1        9.1560   -6.9130   16.7810 C.3    61  VAL61       0.0020
    110  CG2       10.8620   -5.1510   16.3330 C.3    61  VAL61       0.0020
    111  N          7.1310   -5.9680   14.2200 N.am   62  HIS62      -0.1976
    112  CA         6.8050   -6.7280   13.0140 C.3    62  HIS62       0.1656
    113  C          6.2650   -5.8630   11.8760 C.2    62  HIS62       0.2291
    114  O          6.1050   -6.3500   10.7600 O.2    62  HIS62      -0.2864
    115  CB         5.7930   -7.8340   13.3330 C.3    62  HIS62       0.0771
    116  CG         6.3150   -8.8820   14.2650 C.ar   62  HIS62       0.0820
    117  ND1        7.2570   -9.8130   13.8860 N.ar   62  HIS62      -0.2267
    118  CD2        6.0220   -9.1490   15.5600 C.ar   62  HIS62       0.1154
    119  CE1        7.5290  -10.6030   14.9090 C.ar   62  HIS62       0.1986
    120  NE2        6.7910  -10.2230   15.9360 N.ar   62  HIS62      -0.2212
    121  N          6.7500    0.4910    9.6450 N.3    66  LYS66      -0.1231
    122  CA         7.5810    1.0880   10.7120 C.3    66  LYS66       0.1693
    123  C          9.0890    1.0500   10.4330 C.2    66  LYS66       0.2592
    124  O          9.7660    2.0810   10.4800 O.2    66  LYS66      -0.2718
    125  CB         7.2870    0.3900   12.0480 C.3    66  LYS66       0.0285
    126  CG         8.2240    0.7190   13.2150 C.3    66  LYS66       0.0035
    127  CD         7.6100    0.2490   14.5260 C.3    66  LYS66       0.0206
    128  CE         8.5830    0.2850   15.7050 C.3    66  LYS66       0.1093
    129  NZ         8.6810    1.6340   16.3170 N.3    66  LYS66      -0.1314
    130  N          9.6060   -0.1370   10.1220 N.am   67  ILE67      -0.1966
    131  CA        11.0490   -0.3260    9.9700 C.3    67  ILE67       0.1727
    132  C         11.6070    0.4300    8.7590 C.2    67  ILE67       0.2616
    133  O         12.8230    0.5850    8.6060 O.2    67  ILE67      -0.2715
    134  CB        11.4470   -1.8290    9.9480 C.3    67  ILE67       0.0290
    135  CG1       10.8370   -2.5530    8.7510 C.3    67  ILE67       0.0022
    136  CG2       11.0420   -2.4880   11.2500 C.3    67  ILE67       0.0023
    137  CD1       11.8470   -3.2910    7.9200 C.3    67  ILE67       0.0001
    138  N         10.7000    0.8960    7.9060 N.am   68  ILE68      -0.1977
    139  CA        11.0710    1.7320    6.7770 C.3    68  ILE68       0.1596
    140  C         10.7910    3.2110    7.0360 C.2    68  ILE68       0.2287
    141  O         11.6410    4.0460    6.7780 O.2    68  ILE68      -0.2864
    142  CB        10.3610    1.2870    5.4780 C.3    68  ILE68       0.0276
    143  CG1       10.8560   -0.1000    5.0380 C.3    68  ILE68       0.0022
    144  CG2       10.5850    2.3240    4.3800 C.3    68  ILE68       0.0022
    145  CD1        9.8880   -0.8270    4.1590 C.3    68  ILE68       0.0001
    146  N         14.5030    6.3520   15.3660 N.3    73  ALA73      -0.1231
    147  CA        14.9670    5.0010   15.6510 C.3    73  ALA73       0.1694
    148  C         16.1080    5.0440   16.6780 C.2    73  ALA73       0.2593
    149  O         16.7440    6.0770   16.8660 O.2    73  ALA73      -0.2718
    150  CB        15.4020    4.2970   14.3570 C.3    73  ALA73       0.0304
    151  N         16.3570    3.9100   17.3330 N.am   74  THR74      -0.1939
    152  CA        17.3320    3.8130   18.4190 C.3    74  THR74       0.2028
    153  C         18.3800    2.7290   18.1750 C.2    74  THR74       0.2643
    154  O         19.5780    3.0220   18.1130 O.2    74  THR74      -0.2714
    155  CB        16.6320    3.5720   19.7710 C.3    74  THR74       0.1808
    156  OG1       15.9160    4.7550   20.1400 O.3    74  THR74      -0.2208
    157  CG2       17.6410    3.2780   20.8590 C.3    74  THR74       0.0379
    158  N         17.9160    1.4880   18.0250 N.am   75  THR75      -0.1936
    159  CA        18.7920    0.3260   17.9450 C.3    75  THR75       0.2028
    160  C         19.1800   -0.0230   16.5080 C.2    75  THR75       0.2642
    161  O         20.3430   -0.3030   16.2240 O.2    75  THR75      -0.2714
    162  CB        18.1320   -0.8870   18.6020 C.3    75  THR75       0.1808
    163  OG1       16.8090   -1.0410   18.0770 O.3    75  THR75      -0.2208
    164  CG2       18.0520   -0.7070   20.1060 C.3    75  THR75       0.0379
    165  N         18.2000   -0.0140   15.6100 N.am   76  VAL76      -0.1963
    166  CA        18.4400   -0.1790   14.1820 C.3    76  VAL76       0.1727
    167  C         17.8430    1.0350   13.4420 C.2    76  VAL76       0.2616
    168  O         16.7040    1.4390   13.7030 O.2    76  VAL76      -0.2715
    169  CB        17.8310   -1.5280   13.6420 C.3    76  VAL76       0.0290
    170  CG1       18.1870   -1.7720   12.1650 C.3    76  VAL76       0.0023
    171  CG2       18.2550   -2.7270   14.5070 C.3    76  VAL76       0.0023
    172  N         18.6210    1.6210   12.5360 N.am   77  ALA77      -0.1963
    173  CA        18.1290    2.7210   11.7100 C.3    77  ALA77       0.1728
    174  C         16.9780    2.2960   10.7830 C.2    77  ALA77       0.2617
    175  O         16.9630    1.1590   10.2740 O.2    77  ALA77      -0.2715
    176  CB        19.2700    3.2990   10.8970 C.3    77  ALA77       0.0334
    177  N         16.0160    3.1980   10.5640 N.am   78  THR78      -0.1937
    178  CA        15.0380    3.0110    9.4830 C.3    78  THR78       0.2028
    179  C         15.5530    3.7010    8.1920 C.2    78  THR78       0.2642
    180  O         16.4580    4.5270    8.2550 O.2    78  THR78      -0.2714
    181  CB        13.6070    3.5270    9.8710 C.3    78  THR78       0.1808
    182  OG1       13.6200    4.9440   10.0420 O.3    78  THR78      -0.2208
    183  CG2       13.1050    2.8830   11.1670 C.3    78  THR78       0.0379
    184  N         15.0050    3.3520    7.0290 N.am   79  CYS79      -0.1967
    185  CA        15.3030    4.0970    5.7930 C.3    79  CYS79       0.1712
    186  C         15.1020    5.5890    6.0080 C.2    79  CYS79       0.2296
    187  O         15.9550    6.4000    5.6410 O.2    79  CYS79      -0.2864
    188  CB        14.3740    3.6770    4.6510 C.3    79  CYS79       0.0983
    189  SG        14.2830    1.9330    4.3160 S.3    79  CYS79      -0.0798
@<TRIPOS>BOND
     1     1     2    1
     2     4     3    2
     3     3     2    1
     4     2     5    1
     5     5     6    1
     6    69    70    1
     7    69    68    1
     8     6     7    1
     9    68    67    1
    10     7     8    1
    11    67    66    1
    12    66    63    1
    13    63    62    1
    14    63    64    1
    15    24    23   ar
    16    24    22   ar
    17    62    59   am
    18    23    21   ar
    19   145   143    1
    20   189   188    1
    21   144   142    1
    22    64    71   am
    23    64    65    2
    24    59    58    1
    25    59    60    2
    26    71    72    1
    27   188   185    1
    28    22    20   ar
    29    58    57    1
    30    58    61    1
    31    21    20   ar
    32    76    75    1
    33   143   142    1
    34    82    81    1
    35   142   139    1
    36    77    78    1
    37    75    72    1
    38   187   186    2
    39    20    19    1
    40    72    73    1
    41    78    81    1
    42    78    79    1
    43   185   186    1
    44   185   184    1
    45    73    74    2
    46    81    83    1
    47    14    13    1
    48    13    10    1
    49   139   140    1
    50   139   138    1
    51   141   140    2
    52    79    80    2
    53   184   179   am
    54    19    16    1
    55    97    96    2
    56    51    52    2
    57    51    50    1
    58   138   132   am
    59   137   135    1
    60    15    16    1
    61    15    11   am
    62    16    17    1
    63    10    11    1
    64    10     9    1
    65   179   180    2
    66   179   178    1
    67    11    12    2
    68    96    95    1
    69   133   132    2
    70   135   134    1
    71   132   131    1
    72    55    54    2
    73    50    49    1
    74    50    53    1
    75    98    95    1
    76    98    99    1
    77    95    94    1
    78   178   181    1
    79   178   177    1
    80    17    18    2
    81    17    25   am
    82    94    90   am
    83    54    56   am
    84    54    53    1
    85   121   122    1
    86    92    93    1
    87    92    89    1
    88   101    99   ar
    89   101   103   ar
    90   181   182    1
    91   181   183    1
    92   134   131    1
    93   134   136    1
    94   131   130    1
    95    84    85    1
    96    99   100   ar
    97   130   123   am
    98   175   174    2
    99   123   124    2
   100   123   122    1
   101    25    26    1
   102   177   174   am
   103    88    89    1
   104    88    86   am
   105    90    89    1
   106    90    91    2
   107   122   125    1
   108   114   113    2
   109   174   173    1
   110   176   173    1
   111   103   102   ar
   112   100   102   ar
   113    85    86    1
   114    86    87    2
   115   173   172    1
   116    28    27    2
   117    32    34   ar
   118    32    30   ar
   119   113   112    1
   120    34    33   ar
   121    26    27    1
   122    26    29    1
   123   125   126    1
   124   170   169    1
   125    27    35   am
   126   172   167   am
   127    30    29    1
   128    30    31   ar
   129    33    31   ar
   130   112   115    1
   131   112   111    1
   132    35    36    1
   133    35    41    1
   134   126   127    1
   135    48    46    1
   136   115   116    1
   137   167   168    2
   138   167   166    1
   139    36    37    1
   140    36    39    1
   141   107   106    2
   142   169   166    1
   143   169   171    1
   144    46    47    1
   145    46    43    1
   146   117   116   ar
   147   117   119   ar
   148    41    40    1
   149    42    37   am
   150    42    43    1
   151   166   165    1
   152   111   106   am
   153    37    38    2
   154   116   118   ar
   155   150   147    1
   156    39    40    1
   157   106   105    1
   158   127   128    1
   159    45    44    2
   160    43    44    1
   161   119   120   ar
   162   146   147    1
   163   118   120   ar
   164   165   160   am
   165   147   148    1
   166   128   129    1
   167   105   104    1
   168   105   108    1
   169   161   160    2
   170   110   108    1
   171   160   159    1
   172   148   149    2
   173   148   151   am
   174   108   109    1
   175   151   152    1
   176   159   158    1
   177   159   162    1
   178   158   153   am
   179   163   162    1
   180   154   153    2
   181   153   152    1
   182   152   155    1
   183   162   164    1
   184   155   156    1
   185   155   157    1
