@<TRIPOS>MOLECULE
tmp/2a3pA02.pdb
 163 156 0 0 0
SMALL
GASTEIGER

@<TRIPOS>ATOM
      1  N         12.4420   -3.7570   -4.0730 N.3    10  MET10      -0.1245
      2  CA        11.6680   -4.0240   -2.8750 C.3    10  MET10       0.1570
      3  C         10.1980   -3.9060   -3.2630 C.2    10  MET10       0.2261
      4  O          9.6820   -2.8050   -3.4800 O.2    10  MET10      -0.2867
      5  CB        12.0440   -3.0340   -1.7620 C.3    10  MET10       0.0387
      6  CG        13.4670   -3.2270   -1.2320 C.3    10  MET10       0.0595
      7  SD        13.9360   -2.0510    0.0500 S.3    10  MET10      -0.1393
      8  CE        13.1500   -2.7620    1.4950 C.3    10  MET10       0.0692
      9  N         10.2070    0.1070   -4.3680 N.3    17  VAL17      -0.1231
     10  CA        11.3780    0.9930   -4.3170 C.3    17  VAL17       0.1692
     11  C         12.5880    0.2290   -4.8250 C.2    17  VAL17       0.2592
     12  O         12.7090   -0.9720   -4.6090 O.2    17  VAL17      -0.2718
     13  CB        11.6450    1.5030   -2.8550 C.3    17  VAL17       0.0266
     14  CG1       13.0030    2.2940   -2.7230 C.3    17  VAL17       0.0020
     15  CG2       10.4620    2.3470   -2.3420 C.3    17  VAL17       0.0020
     16  N         13.4890    0.9350   -5.4880 N.am   18  ILE18      -0.1966
     17  CA        14.7340    0.3510   -5.9800 C.3    18  ILE18       0.1727
     18  C         15.8600    0.5820   -4.9700 C.2    18  ILE18       0.2616
     19  O         16.2050    1.7220   -4.6450 O.2    18  ILE18      -0.2715
     20  CB        15.0840    0.9000   -7.4030 C.3    18  ILE18       0.0290
     21  CG1       14.2510    0.1600   -8.4620 C.3    18  ILE18       0.0022
     22  CG2       16.5780    0.7790   -7.7070 C.3    18  ILE18       0.0023
     23  CD1       13.8050    1.0230   -9.6490 C.3    18  ILE18       0.0001
     24  N         16.4210   -0.5020   -4.4530 N.am   19  PHE19      -0.1960
     25  CA        17.4930   -0.3570   -3.4810 C.3    19  PHE19       0.1771
     26  C         18.8560   -0.6500   -4.0890 C.2    19  PHE19       0.2619
     27  O         19.1140   -1.7510   -4.5930 O.2    19  PHE19      -0.2715
     28  CB        17.2730   -1.2140   -2.2210 C.3    19  PHE19       0.0574
     29  CG        18.3150   -0.9860   -1.1620 C.ar   19  PHE19      -0.0200
     30  CD1       18.1990    0.0870   -0.2700 C.ar   19  PHE19      -0.0042
     31  CD2       19.4360   -1.8030   -1.0860 C.ar   19  PHE19      -0.0042
     32  CE1       19.1750    0.3130    0.7130 C.ar   19  PHE19      -0.0003
     33  CE2       20.4150   -1.5780   -0.1260 C.ar   19  PHE19      -0.0003
     34  CZ        20.2840   -0.5160    0.7780 C.ar   19  PHE19      -0.0000
     35  N         19.7300    0.3460   -4.0130 N.am   20  ASN20      -0.1972
     36  CA        21.0820    0.2120   -4.5070 C.3    20  ASN20       0.1688
     37  C         22.0820    0.1750   -3.3710 C.2    20  ASN20       0.2292
     38  O         22.2270    1.1410   -2.6410 O.2    20  ASN20      -0.2864
     39  CB        21.3880    1.3590   -5.4640 C.3    20  ASN20       0.1181
     40  CG        20.3640    1.4690   -6.5690 C.2    20  ASN20       0.2629
     41  OD1       20.1320    0.5190   -7.3120 O.2    20  ASN20      -0.2716
     42  ND2       19.7390    2.6230   -6.6760 N.am   20  ASN20      -0.0877
     43  N         24.8080    3.0380   -3.0230 N.3    23  SER23      -0.1202
     44  CA        24.4500    4.2780   -2.3140 C.3    23  SER23       0.2020
     45  C         24.5880    4.1360   -0.7880 C.2    23  SER23       0.2618
     46  O         24.3420    5.0820   -0.0380 O.2    23  SER23      -0.2717
     47  CB        23.0040    4.6500   -2.6460 C.3    23  SER23       0.2103
     48  OG        22.7720    4.6510   -4.0410 O.3    23  SER23      -0.2182
     49  N         24.9580    2.9400   -0.3260 N.am   24  HIS24      -0.1975
     50  CA        24.9010    2.6130    1.0940 C.3    24  HIS24       0.1656
     51  C         26.1390    1.8530    1.5630 C.2    24  HIS24       0.2291
     52  O         26.1820    1.3350    2.6780 O.2    24  HIS24      -0.2864
     53  CB        23.6180    1.8230    1.3820 C.3    24  HIS24       0.0771
     54  CG        22.3630    2.6090    1.1480 C.ar   24  HIS24       0.0820
     55  ND1       21.6310    2.5140   -0.0160 N.ar   24  HIS24      -0.2267
     56  CD2       21.7120    3.5030    1.9340 C.ar   24  HIS24       0.1154
     57  CE1       20.5820    3.3180    0.0630 C.ar   24  HIS24       0.1986
     58  NE2       20.6050    3.9330    1.2360 N.ar   24  HIS24      -0.2212
     59  N         28.1100    2.1640    4.8960 N.3    27  TYR27      -0.1241
     60  CA        27.4800    1.6130    6.1020 C.3    27  TYR27       0.1605
     61  C         27.8230    0.1520    6.3040 C.2    27  TYR27       0.2264
     62  O         28.0020   -0.5910    5.3410 O.2    27  TYR27      -0.2867
     63  CB        25.9670    1.8510    6.0670 C.3    27  TYR27       0.0534
     64  CG        25.6400    3.3480    6.0620 C.ar   27  TYR27      -0.0201
     65  CD1       25.2640    4.0080    4.8790 C.ar   27  TYR27      -0.0009
     66  CD2       25.7750    4.1180    7.2300 C.ar   27  TYR27      -0.0009
     67  CE1       24.9840    5.3780    4.8710 C.ar   27  TYR27       0.0417
     68  CE2       25.5100    5.4970    7.2230 C.ar   27  TYR27       0.0417
     69  CZ        25.1130    6.1130    6.0440 C.ar   27  TYR27       0.1957
     70  OH        24.8560    7.4670    6.0480 O.3    27  TYR27      -0.2866
     71  N         24.1730   -2.7210    9.9560 N.3    31  ASP31      -0.1225
     72  CA        23.3640   -1.5160   10.1900 C.3    31  ASP31       0.1805
     73  C         21.9290   -1.6870    9.6860 C.2    31  ASP31       0.2598
     74  O         21.0020   -1.0780   10.2180 O.2    31  ASP31      -0.2718
     75  CB        24.0090   -0.2720    9.5590 C.3    31  ASP31       0.1424
     76  CG        25.1750    0.2840   10.3850 C.2    31  ASP31       0.3668
     77  OD1       25.8600    1.2050    9.8940 O.co2  31  ASP31      -0.2456
     78  OD2       25.4110   -0.1920   11.5190 O.co2  31  ASP31      -0.2456
     79  N         21.7570   -2.5270    8.6650 N.am   32  CYS32      -0.1970
     80  CA        20.4310   -2.8730    8.1520 C.3    32  CYS32       0.1712
     81  C         20.1490   -4.3690    8.3010 C.2    32  CYS32       0.2296
     82  O         19.0630   -4.7660    8.7230 O.2    32  CYS32      -0.2864
     83  CB        20.3040   -2.4480    6.6960 C.3    32  CYS32       0.0983
     84  SG        20.9300   -0.7480    6.3690 S.3    32  CYS32      -0.0798
     85  N         10.7000    0.8960    7.9060 N.3    68  ILE68      -0.1245
     86  CA        11.0710    1.7320    6.7770 C.3    68  ILE68       0.1561
     87  C         10.7910    3.2110    7.0360 C.2    68  ILE68       0.2260
     88  O         11.6410    4.0460    6.7780 O.2    68  ILE68      -0.2867
     89  CB        10.3610    1.2870    5.4780 C.3    68  ILE68       0.0252
     90  CG1       10.8560   -0.1000    5.0380 C.3    68  ILE68       0.0019
     91  CG2       10.5850    2.3240    4.3800 C.3    68  ILE68       0.0019
     92  CD1        9.8880   -0.8270    4.1590 C.3    68  ILE68       0.0001
     93  N         18.6210    1.6210   12.5360 N.3    77  ALA77      -0.1231
     94  CA        18.1290    2.7210   11.7100 C.3    77  ALA77       0.1694
     95  C         16.9780    2.2960   10.7830 C.2    77  ALA77       0.2593
     96  O         16.9630    1.1590   10.2740 O.2    77  ALA77      -0.2718
     97  CB        19.2700    3.2990   10.8970 C.3    77  ALA77       0.0304
     98  N         16.0160    3.1980   10.5640 N.am   78  THR78      -0.1939
     99  CA        15.0380    3.0110    9.4830 C.3    78  THR78       0.2028
    100  C         15.5530    3.7010    8.1920 C.2    78  THR78       0.2642
    101  O         16.4580    4.5270    8.2550 O.2    78  THR78      -0.2714
    102  CB        13.6070    3.5270    9.8710 C.3    78  THR78       0.1808
    103  OG1       13.6200    4.9440   10.0420 O.3    78  THR78      -0.2208
    104  CG2       13.1050    2.8830   11.1670 C.3    78  THR78       0.0379
    105  N         15.0050    3.3520    7.0290 N.am   79  CYS79      -0.1967
    106  CA        15.3030    4.0970    5.7930 C.3    79  CYS79       0.1712
    107  C         15.1020    5.5890    6.0080 C.2    79  CYS79       0.2296
    108  O         15.9550    6.4000    5.6410 O.2    79  CYS79      -0.2864
    109  CB        14.3740    3.6770    4.6510 C.3    79  CYS79       0.0983
    110  SG        14.2830    1.9330    4.3160 S.3    79  CYS79      -0.0798
    111  N         17.4100    7.5370    8.8940 N.3    82  CYS82      -0.1221
    112  CA        18.7560    7.8640    8.4210 C.3    82  CYS82       0.1808
    113  C         18.7550    8.9640    7.3570 C.2    82  CYS82       0.2601
    114  O         19.5880    9.8620    7.4030 O.2    82  CYS82      -0.2717
    115  CB        19.5020    6.6330    7.9370 C.3    82  CYS82       0.0970
    116  SG        21.1950    6.9900    7.3830 S.3    82  CYS82      -0.0800
    117  N         17.8010    8.8910    6.4270 N.am   83  HIS83      -0.1975
    118  CA        17.6830    9.8510    5.3240 C.3    83  HIS83       0.1656
    119  C         17.3080   11.2340    5.8160 C.2    83  HIS83       0.2291
    120  O         17.7630   12.2240    5.2680 O.2    83  HIS83      -0.2864
    121  CB        16.6640    9.3670    4.2860 C.3    83  HIS83       0.0771
    122  CG        17.1930    8.3220    3.3510 C.ar   83  HIS83       0.0820
    123  ND1       16.7300    8.1880    2.0620 N.ar   83  HIS83      -0.2267
    124  CD2       18.1480    7.3750    3.5100 C.ar   83  HIS83       0.1154
    125  CE1       17.3740    7.1990    1.4660 C.ar   83  HIS83       0.1986
    126  NE2       18.2430    6.6850    2.3210 N.ar   83  HIS83      -0.2212
    127  N         20.5400   12.6680    6.9780 N.3    86  ALA86      -0.1245
    128  CA        21.3980   13.0010    5.8470 C.3    86  ALA86       0.1562
    129  C         20.8860   14.2240    5.0620 C.2    86  ALA86       0.2260
    130  O         21.6710   15.0840    4.6340 O.2    86  ALA86      -0.2867
    131  CB        21.5490   11.7890    4.9290 C.3    86  ALA86       0.0290
    132  N         14.6660   14.6640   -2.3880 N.3    96  GLU96      -0.1231
    133  CA        15.1700   13.4250   -2.9830 C.3    96  GLU96       0.1699
    134  C         15.1780   12.2760   -1.9940 C.2    96  GLU96       0.2592
    135  O         14.9150   11.1320   -2.3510 O.2    96  GLU96      -0.2718
    136  CB        16.5720   13.6430   -3.5440 C.3    96  GLU96       0.0402
    137  CG        16.6220   14.6710   -4.6580 C.3    96  GLU96       0.1161
    138  CD        17.9470   15.3870   -4.7330 C.2    96  GLU96       0.3649
    139  OE1       18.9290   14.8910   -4.1480 O.co2  96  GLU96      -0.2457
    140  OE2       18.0060   16.4540   -5.3830 O.co2  96  GLU96      -0.2457
    141  N         15.4720   12.5770   -0.7400 N.am   97  LEU97      -0.1980
    142  CA        15.7310   11.5160    0.2140 C.3    97  LEU97       0.1596
    143  C         14.5720   11.1930    1.1570 C.2    97  LEU97       0.2287
    144  O         14.4470   10.0570    1.5930 O.2    97  LEU97      -0.2864
    145  CB        17.0410   11.7820    0.9800 C.3    97  LEU97       0.0297
    146  CG        18.3770   11.8330    0.2120 C.3    97  LEU97       0.0022
    147  CD1       19.5510   11.9180    1.1820 C.3    97  LEU97       0.0001
    148  CD2       18.5820   10.6470   -0.7550 C.3    97  LEU97       0.0001
    149  N         13.4480    9.8500   -4.5180 N.3   104  LYS104     -0.1231
    150  CA        14.2020    8.7560   -5.1270 C.3   104  LYS104      0.1693
    151  C         13.7000    7.3970   -4.6270 C.2   104  LYS104      0.2592
    152  O         13.8900    6.3780   -5.2850 O.2   104  LYS104     -0.2718
    153  CB        15.7060    8.9400   -4.8830 C.3   104  LYS104      0.0285
    154  CG        16.3060   10.0760   -5.7300 C.3   104  LYS104      0.0035
    155  CD        17.7970   10.3040   -5.4780 C.3   104  LYS104      0.0206
    156  CE        18.3850   11.2870   -6.5040 C.3   104  LYS104      0.1093
    157  NZ        19.8800   11.4140   -6.4410 N.3   104  LYS104     -0.1314
    158  N         13.0520    7.3890   -3.4670 N.am  105  CYS105     -0.1970
    159  CA        12.3990    6.1710   -2.9740 C.3   105  CYS105      0.1712
    160  C         11.0770    5.9690   -3.7000 C.2   105  CYS105      0.2296
    161  O         10.8370    4.9060   -4.2710 O.2   105  CYS105     -0.2864
    162  CB        12.1430    6.2360   -1.4640 C.3   105  CYS105      0.0983
    163  SG        13.6100    6.3030   -0.4090 S.3   105  CYS105     -0.0798
@<TRIPOS>BOND
     1    23    21    1
     2    21    20    1
     3    22    20    1
     4    20    17    1
     5    41    40    2
     6    42    40   am
     7    40    39    1
     8   156   157    1
     9   156   155    1
    10    17    16    1
    11    17    18    1
    12   154   155    1
    13   154   153    1
    14    16    11   am
    15    39    36    1
    16   140   138   ar
    17   152   151    2
    18   150   153    1
    19   150   151    1
    20   150   149    1
    21    18    19    2
    22    18    24   am
    23    11    12    2
    24    11    10    1
    25   138   137    1
    26   138   139   ar
    27   137   136    1
    28   151   158   am
    29    27    26    2
    30    36    35    1
    31    36    37    1
    32    24    25    1
    33     9    10    1
    34    10    13    1
    35   161   160    2
    36    26    35   am
    37    26    25    1
    38     1     2    1
    39    48    47    1
    40   160   159    1
    41   136   133    1
    42    25    28    1
    43     4     3    2
    44   158   159    1
    45    37    38    2
    46     3     2    1
    47    43    44    1
    48   133   132    1
    49   133   134    1
    50   159   162    1
    51     2     5    1
    52    13    14    1
    53    13    15    1
    54    47    44    1
    55   135   134    2
    56    44    45    1
    57    28    29    1
    58   134   141   am
    59     5     6    1
    60   162   163    1
    61     6     7    1
    62    29    31   ar
    63    29    30   ar
    64    31    33   ar
    65    45    49   am
    66    45    46    2
    67   148   146    1
    68   141   142    1
    69    49    50    1
    70    30    32   ar
    71    33    34   ar
    72    55    57   ar
    73    55    54   ar
    74     7     8    1
    75    57    58   ar
    76   146   145    1
    77   146   147    1
    78   142   145    1
    79   142   143    1
    80    32    34   ar
    81    50    53    1
    82    50    51    1
    83    54    53    1
    84    54    56   ar
    85   143   144    2
    86    58    56   ar
    87   125   123   ar
    88   125   126   ar
    89    51    52    2
    90   123   122   ar
    91   126   124   ar
    92   122   124   ar
    93   122   121    1
    94    92    90    1
    95   121   118    1
    96   110   109    1
    97    91    89    1
    98   130   129    2
    99   109   106    1
   100    67    65   ar
   101    67    69   ar
   102    65    64   ar
   103    59    60    1
   104   131   128    1
   105    90    89    1
   106   129   128    1
   107   120   119    2
   108   118   119    1
   109   118   117    1
   110    62    61    2
   111    89    86    1
   112   108   107    2
   113   106   107    1
   114   106   105    1
   115   128   127    1
   116    69    70    1
   117    69    68   ar
   118    64    63    1
   119    64    66   ar
   120    63    60    1
   121    60    61    1
   122    84    83    1
   123   117   113   am
   124    83    80    1
   125    86    87    1
   126    86    85    1
   127    88    87    2
   128   105   100   am
   129    68    66   ar
   130   113   114    2
   131   113   112    1
   132   116   115    1
   133   115   112    1
   134    80    81    1
   135    80    79    1
   136   100   101    2
   137   100    99    1
   138    81    82    2
   139   112   111    1
   140    79    73   am
   141    99   102    1
   142    99    98    1
   143    75    72    1
   144    75    76    1
   145    73    72    1
   146    73    74    2
   147   102   103    1
   148   102   104    1
   149    77    76   ar
   150    71    72    1
   151    96    95    2
   152    76    78   ar
   153    98    95   am
   154    95    94    1
   155    97    94    1
   156    94    93    1
