@<TRIPOS>MOLECULE
tmp/2a3pA00.pdb
 190 186 0 0 0
SMALL
GASTEIGER

@<TRIPOS>ATOM
      1  N         30.1430  -11.2050    3.8620 N.3     1  ALA1       -0.1231
      2  CA        29.5310  -11.4620    2.5260 C.3     1  ALA1        0.1694
      3  C         29.5660  -10.1940    1.6780 C.2     1  ALA1        0.2592
      4  O         29.9540   -9.1250    2.1630 O.2     1  ALA1       -0.2718
      5  CB        28.1090  -11.9720    2.6790 C.3     1  ALA1        0.0304
      6  N         29.1590  -10.3220    0.4170 N.am    2  GLU2       -0.1966
      7  CA        29.3180   -9.2730   -0.5780 C.3     2  GLU2        0.1733
      8  C         27.9970   -8.6000   -0.8730 C.2     2  GLU2        0.2616
      9  O         26.9750   -9.2680   -1.0020 O.2     2  GLU2       -0.2715
     10  CB        29.8900   -9.8760   -1.8620 C.3     2  GLU2        0.0429
     11  CG        31.3680   -9.6380   -2.0800 C.3     2  GLU2        0.1163
     12  CD        32.1750   -9.6330   -0.8020 C.2     2  GLU2        0.3649
     13  OE1       32.8240   -8.6050   -0.5320 O.co2   2  GLU2       -0.2457
     14  OE2       32.1510  -10.6370   -0.0640 O.co2   2  GLU2       -0.2457
     15  N         28.0080   -7.2770   -0.9730 N.am    3  ALA3       -0.1964
     16  CA        26.8030   -6.5590   -1.3350 C.3     3  ALA3        0.1713
     17  C         26.3530   -7.0410   -2.7290 C.2     3  ALA3        0.2458
     18  O         27.1880   -7.3390   -3.5850 O.2     3  ALA3       -0.2730
     19  CB        27.0680   -5.0680   -1.3360 C.3     3  ALA3        0.0333
     20  N         25.0360   -7.1740   -2.9470 N.am    4  PRO4       -0.2727
     21  CA        24.5840   -7.5090   -4.2850 C.3     4  PRO4        0.1402
     22  C         24.5970   -6.3030   -5.2090 C.2     4  PRO4        0.2269
     23  O         24.7690   -5.1590   -4.7560 O.2     4  PRO4       -0.2865
     24  CB        23.1500   -8.0090   -4.0610 C.3     4  PRO4        0.0296
     25  CG        22.7100   -7.3590   -2.8340 C.3     4  PRO4        0.0237
     26  CD        23.9190   -7.0830   -1.9950 C.3     4  PRO4        0.0939
     27  N         18.0420   -3.5540   -7.2070 N.3     8  LEU8       -0.1231
     28  CA        17.2260   -4.5220   -6.4840 C.3     8  LEU8        0.1693
     29  C         15.8330   -3.9440   -6.1730 C.2     8  LEU8        0.2592
     30  O         15.7190   -2.8450   -5.6370 O.2     8  LEU8       -0.2718
     31  CB        17.9470   -4.8930   -5.1870 C.3     8  LEU8        0.0284
     32  CG        17.5660   -6.1070   -4.3380 C.3     8  LEU8        0.0019
     33  CD1       18.6800   -6.3940   -3.3220 C.3     8  LEU8        0.0001
     34  CD2       16.2210   -5.9190   -3.6250 C.3     8  LEU8        0.0001
     35  N         14.7790   -4.6910   -6.4970 N.am    9  LYS9       -0.1966
     36  CA        13.4090   -4.2370   -6.2320 C.3     9  LYS9        0.1728
     37  C         12.8680   -4.7180   -4.8880 C.2     9  LYS9        0.2616
     38  O         12.8610   -5.9210   -4.5930 O.2     9  LYS9       -0.2715
     39  CB        12.4550   -4.6500   -7.3590 C.3     9  LYS9        0.0311
     40  CG        12.6000   -3.8540   -8.6440 C.3     9  LYS9        0.0038
     41  CD        12.4290   -2.3480   -8.4350 C.3     9  LYS9        0.0206
     42  CE        10.9740   -1.9560   -8.1990 C.3     9  LYS9        0.1093
     43  NZ        10.8890   -0.4670   -8.1140 N.3     9  LYS9       -0.1314
     44  N         12.4420   -3.7570   -4.0730 N.am   10  MET10      -0.1977
     45  CA        11.6680   -4.0240   -2.8750 C.3    10  MET10       0.1605
     46  C         10.1980   -3.9060   -3.2630 C.2    10  MET10       0.2287
     47  O          9.6820   -2.8050   -3.4800 O.2    10  MET10      -0.2864
     48  CB        12.0440   -3.0340   -1.7620 C.3    10  MET10       0.0413
     49  CG        13.4670   -3.2270   -1.2320 C.3    10  MET10       0.0598
     50  SD        13.9360   -2.0510    0.0500 S.3    10  MET10      -0.1393
     51  CE        13.1500   -2.7620    1.4950 C.3    10  MET10       0.0692
     52  N          7.0970   -5.7390   -1.8770 N.3    12  ASN12      -0.1240
     53  CA         6.0480   -6.3350   -1.0590 C.3    12  ASN12       0.1653
     54  C          4.7610   -5.5000   -1.0700 C.2    12  ASN12       0.2266
     55  O          3.7200   -5.9310   -0.5610 O.2    12  ASN12      -0.2867
     56  CB         6.5440   -6.5170    0.3690 C.3    12  ASN12       0.1155
     57  CG         7.7530   -7.4120    0.4490 C.2    12  ASN12       0.2627
     58  OD1        7.6390   -8.6370    0.4330 O.2    12  ASN12      -0.2716
     59  ND2        8.9230   -6.8080    0.5180 N.am   12  ASN12      -0.0877
     60  N         16.4210   -0.5020   -4.4530 N.3    19  PHE19      -0.1241
     61  CA        17.4930   -0.3570   -3.4810 C.3    19  PHE19       0.1605
     62  C         18.8560   -0.6500   -4.0890 C.2    19  PHE19       0.2264
     63  O         19.1140   -1.7510   -4.5930 O.2    19  PHE19      -0.2867
     64  CB        17.2730   -1.2140   -2.2210 C.3    19  PHE19       0.0534
     65  CG        18.3150   -0.9860   -1.1620 C.ar   19  PHE19      -0.0203
     66  CD1       18.1990    0.0870   -0.2700 C.ar   19  PHE19      -0.0042
     67  CD2       19.4360   -1.8030   -1.0860 C.ar   19  PHE19      -0.0042
     68  CE1       19.1750    0.3130    0.7130 C.ar   19  PHE19      -0.0003
     69  CE2       20.4150   -1.5780   -0.1260 C.ar   19  PHE19      -0.0003
     70  CZ        20.2840   -0.5160    0.7780 C.ar   19  PHE19      -0.0000
     71  N         22.7650   -0.9590   -3.2280 N.3    21  HIS21      -0.1241
     72  CA        23.7810   -1.1540   -2.1960 C.3    21  HIS21       0.1621
     73  C         24.9320   -0.1510   -2.3560 C.2    21  HIS21       0.2264
     74  O         25.5520    0.2440   -1.3680 O.2    21  HIS21      -0.2867
     75  CB        24.2570   -2.6370   -2.1410 C.3    21  HIS21       0.0745
     76  CG        23.3860   -3.5230   -1.2840 C.ar   21  HIS21       0.0817
     77  ND1       22.2390   -4.1250   -1.7540 N.ar   21  HIS21      -0.2268
     78  CD2       23.4700   -3.8650    0.0270 C.ar   21  HIS21       0.1154
     79  CE1       21.6660   -4.8120   -0.7770 C.ar   21  HIS21       0.1986
     80  NE2       22.3910   -4.6760    0.3190 N.ar   21  HIS21      -0.2212
     81  N         24.9580    2.9400   -0.3260 N.3    24  HIS24      -0.1226
     82  CA        24.9010    2.6130    1.0940 C.3    24  HIS24       0.1752
     83  C         26.1390    1.8530    1.5630 C.2    24  HIS24       0.2596
     84  O         26.1820    1.3350    2.6780 O.2    24  HIS24      -0.2718
     85  CB        23.6180    1.8230    1.3820 C.3    24  HIS24       0.0759
     86  CG        22.3630    2.6090    1.1480 C.ar   24  HIS24       0.0818
     87  ND1       21.6310    2.5140   -0.0160 N.ar   24  HIS24      -0.2268
     88  CD2       21.7120    3.5030    1.9340 C.ar   24  HIS24       0.1154
     89  CE1       20.5820    3.3180    0.0630 C.ar   24  HIS24       0.1986
     90  NE2       20.6050    3.9330    1.2360 N.ar   24  HIS24      -0.2212
     91  N         27.1610    1.8240    0.7160 N.am   25  SER25      -0.1952
     92  CA        28.3370    0.9880    0.9390 C.3    25  SER25       0.1924
     93  C         29.3060    1.5580    1.9650 C.2    25  SER25       0.2314
     94  O         30.2650    0.8930    2.3280 O.2    25  SER25      -0.2863
     95  CB        29.0600    0.7060   -0.3750 C.3    25  SER25       0.2116
     96  OG        29.4000    1.9110   -1.0280 O.3    25  SER25      -0.2180
     97  N         28.1100    2.1640    4.8960 N.3    27  TYR27      -0.1227
     98  CA        27.4800    1.6130    6.1020 C.3    27  TYR27       0.1736
     99  C         27.8230    0.1520    6.3040 C.2    27  TYR27       0.2595
    100  O         28.0020   -0.5910    5.3410 O.2    27  TYR27      -0.2718
    101  CB        25.9670    1.8510    6.0670 C.3    27  TYR27       0.0548
    102  CG        25.6400    3.3480    6.0620 C.ar   27  TYR27      -0.0200
    103  CD1       25.2640    4.0080    4.8790 C.ar   27  TYR27      -0.0009
    104  CD2       25.7750    4.1180    7.2300 C.ar   27  TYR27      -0.0009
    105  CE1       24.9840    5.3780    4.8710 C.ar   27  TYR27       0.0417
    106  CE2       25.5100    5.4970    7.2230 C.ar   27  TYR27       0.0417
    107  CZ        25.1130    6.1130    6.0440 C.ar   27  TYR27       0.1957
    108  OH        24.8560    7.4670    6.0480 O.3    27  TYR27      -0.2866
    109  N         27.9530   -0.2530    7.5630 N.am   28  GLN28      -0.1965
    110  CA        28.2020   -1.6460    7.8840 C.3    28  GLN28       0.1733
    111  C         27.0000   -2.4840    7.4720 C.2    28  GLN28       0.2616
    112  O         25.8510   -2.0390    7.5980 O.2    28  GLN28      -0.2715
    113  CB        28.5040   -1.8150    9.3740 C.3    28  GLN28       0.0408
    114  CG        29.9670   -1.5200    9.7740 C.3    28  GLN28       0.0908
    115  CD        30.9600   -2.5950    9.2940 C.2    28  GLN28       0.2608
    116  OE1       31.6030   -3.2790   10.1030 O.2    28  GLN28      -0.2717
    117  NE2       31.0790   -2.7490    7.9770 N.am   28  GLN28      -0.0878
    118  N         27.2650   -3.6830    6.9540 N.am   29  CYS29      -0.1968
    119  CA        26.1920   -4.6150    6.6050 C.3    29  CYS29       0.1712
    120  C         25.1280   -4.6940    7.7050 C.2    29  CYS29       0.2296
    121  O         23.9240   -4.5420    7.4290 O.2    29  CYS29      -0.2864
    122  CB        26.7620   -6.0030    6.3110 C.3    29  CYS29       0.0983
    123  SG        27.8780   -6.0340    4.9010 S.3    29  CYS29      -0.0798
    124  N         21.7570   -2.5270    8.6650 N.3    32  CYS32      -0.1221
    125  CA        20.4310   -2.8730    8.1520 C.3    32  CYS32       0.1808
    126  C         20.1490   -4.3690    8.3010 C.2    32  CYS32       0.2601
    127  O         19.0630   -4.7660    8.7230 O.2    32  CYS32      -0.2717
    128  CB        20.3040   -2.4480    6.6960 C.3    32  CYS32       0.0970
    129  SG        20.9300   -0.7480    6.3690 S.3    32  CYS32      -0.0800
    130  N         21.1230   -5.2010    7.9510 N.am   33  HIS33      -0.1975
    131  CA        20.9880   -6.6450    8.1480 C.3    33  HIS33       0.1656
    132  C         21.4040   -6.9910    9.5890 C.2    33  HIS33       0.2291
    133  O         22.3970   -7.6770    9.8200 O.2    33  HIS33      -0.2864
    134  CB        21.8280   -7.4050    7.1160 C.3    33  HIS33       0.0771
    135  CG        21.5150   -7.0570    5.6810 C.ar   33  HIS33       0.0820
    136  ND1       20.4450   -7.5950    4.9990 N.ar   33  HIS33      -0.2267
    137  CD2       22.1620   -6.2650    4.7890 C.ar   33  HIS33       0.1154
    138  CE1       20.4360   -7.1360    3.7570 C.ar   33  HIS33       0.1986
    139  NE2       21.4710   -6.3300    3.5990 N.ar   33  HIS33      -0.2212
    140  N         20.7410  -12.2570    6.6250 N.3    42  LEU42      -0.1231
    141  CA        20.6530  -11.5860    5.3250 C.3    42  LEU42       0.1693
    142  C         19.3090  -11.8280    4.6470 C.2    42  LEU42       0.2592
    143  O         19.1460  -11.5510    3.4520 O.2    42  LEU42      -0.2718
    144  CB        21.8200  -11.9980    4.4140 C.3    42  LEU42       0.0284
    145  CG        23.2190  -11.6140    4.9230 C.3    42  LEU42       0.0019
    146  CD1       24.3300  -12.3320    4.1540 C.3    42  LEU42       0.0001
    147  CD2       23.4410  -10.1090    4.9200 C.3    42  LEU42       0.0001
    148  N         18.3560  -12.3590    5.4170 N.am   43  ALA43      -0.1966
    149  CA        17.0130  -12.6440    4.9080 C.3    43  ALA43       0.1728
    150  C         16.2410  -11.3720    4.5730 C.2    43  ALA43       0.2616
    151  O         16.4760  -10.2940    5.1540 O.2    43  ALA43      -0.2715
    152  CB        16.2310  -13.4930    5.8920 C.3    43  ALA43       0.0334
    153  N         15.3020  -11.5080    3.6430 N.am   44  LYS44      -0.1963
    154  CA        14.4920  -10.3750    3.2300 C.3    44  LYS44       0.1728
    155  C         13.6540   -9.8950    4.4110 C.2    44  LYS44       0.2616
    156  O         13.0970  -10.6980    5.1540 O.2    44  LYS44      -0.2715
    157  CB        13.6490  -10.7380    2.0140 C.3    44  LYS44       0.0311
    158  CG        14.4960  -11.2920    0.8510 C.3    44  LYS44       0.0038
    159  CD        14.8530  -10.2230   -0.1890 C.3    44  LYS44       0.0206
    160  CE        13.9750  -10.3370   -1.4410 C.3    44  LYS44       0.1093
    161  NZ        12.5510   -9.9070   -1.2340 N.3    44  LYS44      -0.1314
    162  N         13.6170   -8.5780    4.5860 N.am   45  CYS45      -0.1954
    163  CA        12.9780   -7.9080    5.7250 C.3    45  CYS45       0.1843
    164  C         11.5620   -8.4100    6.0410 C.2    45  CYS45       0.2625
    165  O         11.2430   -8.6660    7.2020 O.2    45  CYS45      -0.2714
    166  CB        12.9960   -6.3880    5.5080 C.3    45  CYS45       0.0997
    167  SG        14.6520   -5.7630    5.0370 S.3    45  CYS45      -0.0797
    168  N         10.7360   -8.5820    5.0100 N.am   46  ALA46      -0.1977
    169  CA         9.3530   -9.0200    5.1980 C.3    46  ALA46       0.1597
    170  C          9.1570  -10.5520    5.2030 C.2    46  ALA46       0.2287
    171  O          8.0470  -11.0390    4.9590 O.2    46  ALA46      -0.2864
    172  CB         8.4330   -8.3460    4.1810 C.3    46  ALA46       0.0319
    173  N          6.2870   -3.8840    8.8210 N.3    64  TYR64      -0.1241
    174  CA         7.0750   -3.5250    7.6380 C.3    64  TYR64       0.1605
    175  C          7.1040   -2.0070    7.3950 C.2    64  TYR64       0.2264
    176  O          8.1550   -1.4470    7.1060 O.2    64  TYR64      -0.2867
    177  CB         6.5290   -4.2240    6.3920 C.3    64  TYR64       0.0534
    178  CG         7.4260   -4.1340    5.1610 C.ar   64  TYR64      -0.0201
    179  CD1        8.7320   -4.6350    5.1810 C.ar   64  TYR64      -0.0009
    180  CD2        6.9570   -3.5800    3.9660 C.ar   64  TYR64      -0.0009
    181  CE1        9.5480   -4.5750    4.0530 C.ar   64  TYR64       0.0417
    182  CE2        7.7660   -3.5210    2.8250 C.ar   64  TYR64       0.0417
    183  CZ         9.0620   -4.0180    2.8800 C.ar   64  TYR64       0.1957
    184  OH         9.8870   -3.9700    1.7710 O.3    64  TYR64      -0.2866
    185  N         15.0050    3.3520    7.0290 N.3    79  CYS79      -0.1235
    186  CA        15.3030    4.0970    5.7930 C.3    79  CYS79       0.1677
    187  C         15.1020    5.5890    6.0080 C.2    79  CYS79       0.2270
    188  O         15.9550    6.4000    5.6410 O.2    79  CYS79      -0.2867
    189  CB        14.3740    3.6770    4.6510 C.3    79  CYS79       0.0956
    190  SG        14.2830    1.9330    4.3160 S.3    79  CYS79      -0.0801
@<TRIPOS>BOND
     1    40    41    1
     2    40    39    1
     3    41    42    1
     4    42    43    1
     5    39    36    1
     6    27    28    1
     7    35    36    1
     8    35    29   am
     9    28    29    1
    10    28    31    1
    11    36    37    1
    12    29    30    2
    13    22    23    2
    14    22    21    1
    15    31    32    1
    16    37    38    2
    17    37    44   am
    18    63    62    2
    19    60    61    1
    20    32    34    1
    21    32    33    1
    22    21    24    1
    23    21    20    1
    24    62    61    1
    25    44    45    1
    26    24    25    1
    27    18    17    2
    28    61    64    1
    29    47    46    2
    30    46    45    1
    31    71    72    1
    32    20    17   am
    33    20    26    1
    34    45    48    1
    35    25    26    1
    36    17    16    1
    37    73    72    1
    38    73    74    2
    39    64    65    1
    40    72    75    1
    41    75    76    1
    42    11    10    1
    43    11    12    1
    44    52    53    1
    45    10     7    1
    46    48    49    1
    47    77    76   ar
    48    77    79   ar
    49   160   161    1
    50   160   159    1
    51    19    16    1
    52    16    15    1
    53    76    78   ar
    54    49    50    1
    55    65    67   ar
    56    65    66   ar
    57    67    69   ar
    58    54    53    1
    59    54    55    2
    60    53    56    1
    61    96    95    1
    62     9     8    2
    63    15     8   am
    64     8     7    1
    65    12    13   ar
    66    12    14   ar
    67    79    80   ar
    68     7     6    1
    69    95    92    1
    70    81    82    1
    71    66    68   ar
    72   159   158    1
    73    69    70   ar
    74    87    89   ar
    75    87    86   ar
    76    78    80   ar
    77    50    51    1
    78    89    90   ar
    79    56    57    1
    80     6     3   am
    81    58    57    2
    82    57    59   am
    83    68    70   ar
    84    91    92    1
    85    91    83   am
    86   158   157    1
    87    92    93    1
    88    82    85    1
    89    82    83    1
    90    86    85    1
    91    86    88   ar
    92    90    88   ar
    93    83    84    2
    94     3     4    2
    95     3     2    1
    96   184   183    1
    97    93    94    2
    98   157   154    1
    99     2     5    1
   100     2     1    1
   101   182   183   ar
   102   182   180   ar
   103   183   181   ar
   104   154   153    1
   105   154   155    1
   106   143   142    2
   107   139   138   ar
   108   139   137   ar
   109   153   150   am
   110   138   136   ar
   111   180   178   ar
   112   181   179   ar
   113   146   145    1
   114   172   169    1
   115   190   189    1
   116   155   162   am
   117   155   156    2
   118   144   145    1
   119   144   141    1
   120   150   149    1
   121   150   151    2
   122   162   163    1
   123   142   141    1
   124   142   148   am
   125   189   186    1
   126   137   135   ar
   127   105   103   ar
   128   105   107   ar
   129   103   102   ar
   130    97    98    1
   131   123   122    1
   132   149   148    1
   133   149   152    1
   134   147   145    1
   135   171   170    2
   136   136   135   ar
   137   168   169    1
   138   168   164   am
   139   167   166    1
   140   178   179   ar
   141   178   177    1
   142   169   170    1
   143   141   140    1
   144   100    99    2
   145   166   163    1
   146   188   187    2
   147   135   134    1
   148   163   164    1
   149   186   187    1
   150   186   185    1
   151   164   165    2
   152   107   108    1
   153   107   106   ar
   154   102   101    1
   155   102   104   ar
   156   101    98    1
   157    98    99    1
   158    99   109   am
   159   122   119    1
   160   129   128    1
   161   177   174    1
   162   119   118    1
   163   119   120    1
   164   128   125    1
   165   118   111   am
   166   176   175    2
   167   134   131    1
   168   106   104   ar
   169   175   174    1
   170   121   120    2
   171   111   112    2
   172   111   110    1
   173   109   110    1
   174   174   173    1
   175   110   113    1
   176   130   131    1
   177   130   126   am
   178   117   115   am
   179   131   132    1
   180   125   126    1
   181   125   124    1
   182   126   127    2
   183   115   114    1
   184   115   116    2
   185   113   114    1
   186   132   133    2
