@<TRIPOS>MOLECULE
tmp/2a3pA03.pdb
 207 203 0 0 0
SMALL
GASTEIGER

@<TRIPOS>ATOM
      1  N         12.4420   -3.7570   -4.0730 N.3    10  MET10      -0.1230
      2  CA        11.6680   -4.0240   -2.8750 C.3    10  MET10       0.1702
      3  C         10.1980   -3.9060   -3.2630 C.2    10  MET10       0.2592
      4  O          9.6820   -2.8050   -3.4800 O.2    10  MET10      -0.2718
      5  CB        12.0440   -3.0340   -1.7620 C.3    10  MET10       0.0401
      6  CG        13.4670   -3.2270   -1.2320 C.3    10  MET10       0.0596
      7  SD        13.9360   -2.0510    0.0500 S.3    10  MET10      -0.1393
      8  CE        13.1500   -2.7620    1.4950 C.3    10  MET10       0.0692
      9  N          9.5280   -5.0480   -3.3800 N.am   11  GLU11      -0.1966
     10  CA         8.1710   -5.0760   -3.9510 C.3    11  GLU11       0.1733
     11  C          7.1580   -5.9460   -3.1880 C.2    11  GLU11       0.2616
     12  O          6.4370   -6.7650   -3.7740 O.2    11  GLU11      -0.2715
     13  CB         8.1970   -5.3990   -5.4600 C.3    11  GLU11       0.0429
     14  CG         9.3420   -6.2950   -5.9230 C.3    11  GLU11       0.1163
     15  CD         9.1320   -7.7490   -5.5670 C.2    11  GLU11       0.3649
     16  OE1        8.5010   -8.4730   -6.3790 O.co2  11  GLU11      -0.2457
     17  OE2        9.6080   -8.1630   -4.4790 O.co2  11  GLU11      -0.2457
     18  N          7.0970   -5.7390   -1.8770 N.am   12  ASN12      -0.1958
     19  CA         6.0480   -6.3350   -1.0590 C.3    12  ASN12       0.1819
     20  C          4.7610   -5.5000   -1.0700 C.2    12  ASN12       0.2622
     21  O          3.7200   -5.9310   -0.5610 O.2    12  ASN12      -0.2715
     22  CB         6.5440   -6.5170    0.3690 C.3    12  ASN12       0.1195
     23  CG         7.7530   -7.4120    0.4490 C.2    12  ASN12       0.2630
     24  OD1        7.6390   -8.6370    0.4330 O.2    12  ASN12      -0.2716
     25  ND2        8.9230   -6.8080    0.5180 N.am   12  ASN12      -0.0877
     26  N          4.8340   -4.3040   -1.6470 N.am   13  THR13      -0.1937
     27  CA         3.6940   -3.3930   -1.6360 C.3    13  THR13       0.2028
     28  C          3.3970   -2.8580   -3.0350 C.2    13  THR13       0.2642
     29  O          4.1820   -3.0720   -3.9680 O.2    13  THR13      -0.2714
     30  CB         3.9110   -2.2030   -0.6500 C.3    13  THR13       0.1808
     31  OG1        4.8170   -1.2490   -1.2240 O.3    13  THR13      -0.2208
     32  CG2        4.4540   -2.6880    0.6920 C.3    13  THR13       0.0379
     33  N          2.2620   -2.1660   -3.1610 N.am   14  LYS14      -0.1963
     34  CA         1.8630   -1.4680   -4.3910 C.3    14  LYS14       0.1728
     35  C          2.6840   -0.1940   -4.6430 C.2    14  LYS14       0.2616
     36  O          2.4030    0.5540   -5.5850 O.2    14  LYS14      -0.2715
     37  CB         0.3620   -1.1300   -4.3560 C.3    14  LYS14       0.0311
     38  CG        -0.5640   -2.3480   -4.5480 C.3    14  LYS14       0.0038
     39  CD        -0.4920   -2.8960   -5.9830 C.3    14  LYS14       0.0206
     40  CE        -0.1220   -4.4000   -6.0570 C.3    14  LYS14       0.1093
     41  NZ         1.3540   -4.7300   -5.9910 N.3    14  LYS14      -0.1314
     42  N          3.6920    0.0480   -3.8020 N.am   15  MET15      -0.1964
     43  CA         4.5750    1.2150   -3.9330 C.3    15  MET15       0.1722
     44  C          6.0590    0.8200   -3.8580 C.2    15  MET15       0.2458
     45  O          6.7700    1.2520   -2.9410 O.2    15  MET15      -0.2730
     46  CB         4.2650    2.2380   -2.8390 C.3    15  MET15       0.0427
     47  CG         2.8800    2.8530   -2.8930 C.3    15  MET15       0.0599
     48  SD         2.9060    4.3950   -3.8130 S.3    15  MET15      -0.1393
     49  CE         3.6540    5.5260   -2.6300 C.3    15  MET15       0.0692
     50  N          6.5410    0.0230   -4.8350 N.am   16  PRO16      -0.2716
     51  CA         7.8880   -0.5580   -4.7370 C.3    16  PRO16       0.1536
     52  C          9.0200    0.4780   -4.8550 C.2    16  PRO16       0.2598
     53  O          8.8030    1.5870   -5.3680 O.2    16  PRO16      -0.2715
     54  CB         7.9320   -1.5510   -5.9100 C.3    16  PRO16       0.0310
     55  CG         6.9610   -1.0500   -6.8830 C.3    16  PRO16       0.0237
     56  CD         5.8790   -0.3390   -6.1080 C.3    16  PRO16       0.0939
     57  N         10.2070    0.1070   -4.3680 N.am   17  VAL17      -0.1978
     58  CA        11.3780    0.9930   -4.3170 C.3    17  VAL17       0.1596
     59  C         12.5880    0.2290   -4.8250 C.2    17  VAL17       0.2287
     60  O         12.7090   -0.9720   -4.6090 O.2    17  VAL17      -0.2864
     61  CB        11.6450    1.5030   -2.8550 C.3    17  VAL17       0.0276
     62  CG1       13.0030    2.2940   -2.7230 C.3    17  VAL17       0.0022
     63  CG2       10.4620    2.3470   -2.3420 C.3    17  VAL17       0.0022
     64  N          1.7130   -5.7200    7.4380 N.3    54  PHE54      -0.1241
     65  CA         1.6080   -4.6720    6.4230 C.3    54  PHE54       0.1605
     66  C          0.5820   -3.5750    6.7370 C.2    54  PHE54       0.2264
     67  O          0.4850   -2.5720    6.0170 O.2    54  PHE54      -0.2867
     68  CB         1.4010   -5.3000    5.0430 C.3    54  PHE54       0.0534
     69  CG         2.6460   -5.9120    4.4990 C.ar   54  PHE54      -0.0203
     70  CD1        3.4100   -5.2400    3.5640 C.ar   54  PHE54      -0.0042
     71  CD2        3.1040   -7.1370    4.9820 C.ar   54  PHE54      -0.0042
     72  CE1        4.5930   -5.7950    3.0920 C.ar   54  PHE54      -0.0003
     73  CE2        4.2890   -7.6920    4.5140 C.ar   54  PHE54      -0.0003
     74  CZ         5.0290   -7.0240    3.5650 C.ar   54  PHE54      -0.0000
     75  N         -0.3190   -0.3650    8.1770 N.3    56  LYS56      -0.1245
     76  CA         0.5490    0.8110    8.3340 C.3    56  LYS56       0.1561
     77  C          0.3850    1.4380    9.7180 C.2    56  LYS56       0.2260
     78  O          1.2650    2.1800   10.1710 O.2    56  LYS56      -0.2867
     79  CB         0.2810    1.8460    7.2260 C.3    56  LYS56       0.0271
     80  CG         0.4620    1.2760    5.8280 C.3    56  LYS56       0.0035
     81  CD        -0.1910    2.1160    4.7540 C.3    56  LYS56       0.0206
     82  CE        -0.2120    1.3190    3.4540 C.3    56  LYS56       0.1093
     83  NZ        -0.7070    2.0690    2.2600 N.3    56  LYS56      -0.1314
     84  N          6.2870   -3.8840    8.8210 N.3    64  TYR64      -0.1227
     85  CA         7.0750   -3.5250    7.6380 C.3    64  TYR64       0.1736
     86  C          7.1040   -2.0070    7.3950 C.2    64  TYR64       0.2595
     87  O          8.1550   -1.4470    7.1060 O.2    64  TYR64      -0.2718
     88  CB         6.5290   -4.2240    6.3920 C.3    64  TYR64       0.0548
     89  CG         7.4260   -4.1340    5.1610 C.ar   64  TYR64      -0.0200
     90  CD1        8.7320   -4.6350    5.1810 C.ar   64  TYR64      -0.0009
     91  CD2        6.9570   -3.5800    3.9660 C.ar   64  TYR64      -0.0009
     92  CE1        9.5480   -4.5750    4.0530 C.ar   64  TYR64       0.0417
     93  CE2        7.7660   -3.5210    2.8250 C.ar   64  TYR64       0.0417
     94  CZ         9.0620   -4.0180    2.8800 C.ar   64  TYR64       0.1957
     95  OH         9.8870   -3.9700    1.7710 O.3    64  TYR64      -0.2866
     96  N          5.9490   -1.3540    7.5030 N.am   65  TYR65      -0.1976
     97  CA         5.8700    0.1070    7.3720 C.3    65  TYR65       0.1639
     98  C          6.7810    0.8750    8.3630 C.2    65  TYR65       0.2290
     99  O          7.4840    1.8000    7.9510 O.2    65  TYR65      -0.2864
    100  CB         4.4100    0.6040    7.4640 C.3    65  TYR65       0.0560
    101  CG         4.2390    2.0340    6.9760 C.ar   65  TYR65      -0.0198
    102  CD1        4.3680    3.1230    7.8610 C.ar   65  TYR65      -0.0009
    103  CD2        3.9710    2.3030    5.6270 C.ar   65  TYR65      -0.0009
    104  CE1        4.2290    4.4340    7.4130 C.ar   65  TYR65       0.0417
    105  CE2        3.8350    3.6070    5.1720 C.ar   65  TYR65       0.0417
    106  CZ         3.9630    4.6660    6.0670 C.ar   65  TYR65       0.1957
    107  OH         3.8120    5.9570    5.6100 O.3    65  TYR65      -0.2866
    108  N         10.7000    0.8960    7.9060 N.3    68  ILE68      -0.1231
    109  CA        11.0710    1.7320    6.7770 C.3    68  ILE68       0.1692
    110  C         10.7910    3.2110    7.0360 C.2    68  ILE68       0.2592
    111  O         11.6410    4.0460    6.7780 O.2    68  ILE68      -0.2718
    112  CB        10.3610    1.2870    5.4780 C.3    68  ILE68       0.0266
    113  CG1       10.8560   -0.1000    5.0380 C.3    68  ILE68       0.0019
    114  CG2       10.5850    2.3240    4.3800 C.3    68  ILE68       0.0020
    115  CD1        9.8880   -0.8270    4.1590 C.3    68  ILE68       0.0001
    116  N          9.6070    3.5230    7.5610 N.am   69  HIS69      -0.1976
    117  CA         9.0960    4.8960    7.5270 C.3    69  HIS69       0.1656
    118  C          9.1400    5.6320    8.8660 C.2    69  HIS69       0.2291
    119  O          8.8640    6.8340    8.9230 O.2    69  HIS69      -0.2864
    120  CB         7.6840    4.9400    6.9310 C.3    69  HIS69       0.0771
    121  CG         7.6010    4.4640    5.5060 C.ar   69  HIS69       0.0820
    122  ND1        7.1130    3.2240    5.1680 N.ar   69  HIS69      -0.2267
    123  CD2        7.9250    5.0700    4.3350 C.ar   69  HIS69       0.1154
    124  CE1        7.1430    3.0810    3.8500 C.ar   69  HIS69       0.1986
    125  NE2        7.6210    4.1910    3.3150 N.ar   69  HIS69      -0.2212
    126  N         10.2810    7.8620   11.6930 N.3    71  ARG71      -0.1245
    127  CA        11.1670    9.0240   11.5960 C.3    71  ARG71       0.1563
    128  C         12.2420    9.0120   12.6810 C.2    71  ARG71       0.2260
    129  O         13.3000    9.6380   12.5340 O.2    71  ARG71      -0.2867
    130  CB        10.3570   10.3200   11.6270 C.3    71  ARG71       0.0307
    131  CG         9.4060   10.4710   10.4490 C.3    71  ARG71       0.0489
    132  CD         8.4570   11.6210   10.6570 C.3    71  ARG71       0.2205
    133  NE         9.1690   12.8740   10.8970 N.pl3  71  ARG71      -0.0865
    134  CZ         9.4810   13.7640    9.9530 C.cat  71  ARG71       0.5346
    135  NH1        9.1490   13.5500    8.6780 N.pl3  71  ARG71       0.1354
    136  NH2       10.1350   14.8780   10.2890 N.pl3  71  ARG71       0.1354
    137  N         15.0050    3.3520    7.0290 N.3    79  CYS79      -0.1221
    138  CA        15.3030    4.0970    5.7930 C.3    79  CYS79       0.1808
    139  C         15.1020    5.5890    6.0080 C.2    79  CYS79       0.2601
    140  O         15.9550    6.4000    5.6410 O.2    79  CYS79      -0.2717
    141  CB        14.3740    3.6770    4.6510 C.3    79  CYS79       0.0970
    142  SG        14.2830    1.9330    4.3160 S.3    79  CYS79      -0.0800
    143  N         13.9540    5.9260    6.6030 N.am   80  MET80      -0.1979
    144  CA        13.5130    7.2960    6.7960 C.3    80  MET80       0.1605
    145  C         14.3980    8.0180    7.7990 C.2    80  MET80       0.2287
    146  O         14.8750    9.1170    7.5180 O.2    80  MET80      -0.2864
    147  CB        12.0540    7.3280    7.2700 C.3    80  MET80       0.0413
    148  CG        11.4690    8.7430    7.4750 C.3    80  MET80       0.0598
    149  SD        11.5120    9.7450    5.9500 S.3    80  MET80      -0.1393
    150  CE        10.0370    9.0850    5.1670 C.3    80  MET80       0.0692
    151  N         17.8010    8.8910    6.4270 N.3    83  HIS83      -0.1241
    152  CA        17.6830    9.8510    5.3240 C.3    83  HIS83       0.1621
    153  C         17.3080   11.2340    5.8160 C.2    83  HIS83       0.2264
    154  O         17.7630   12.2240    5.2680 O.2    83  HIS83      -0.2867
    155  CB        16.6640    9.3670    4.2860 C.3    83  HIS83       0.0745
    156  CG        17.1930    8.3220    3.3510 C.ar   83  HIS83       0.0817
    157  ND1       16.7300    8.1880    2.0620 N.ar   83  HIS83      -0.2268
    158  CD2       18.1480    7.3750    3.5100 C.ar   83  HIS83       0.1154
    159  CE1       17.3740    7.1990    1.4660 C.ar   83  HIS83       0.1986
    160  NE2       18.2430    6.6850    2.3210 N.ar   83  HIS83      -0.2212
    161  N         15.4720   12.5770   -0.7400 N.3    97  LEU97      -0.1231
    162  CA        15.7310   11.5160    0.2140 C.3    97  LEU97       0.1693
    163  C         14.5720   11.1930    1.1570 C.2    97  LEU97       0.2593
    164  O         14.4470   10.0570    1.5930 O.2    97  LEU97      -0.2718
    165  CB        17.0410   11.7820    0.9800 C.3    97  LEU97       0.0284
    166  CG        18.3770   11.8330    0.2120 C.3    97  LEU97       0.0019
    167  CD1       19.5510   11.9180    1.1820 C.3    97  LEU97       0.0001
    168  CD2       18.5820   10.6470   -0.7550 C.3    97  LEU97       0.0001
    169  N         13.7310   12.1830    1.4620 N.am   98  THR98      -0.1939
    170  CA        12.6950   12.0140    2.4860 C.3    98  THR98       0.2028
    171  C         11.2560   12.1930    1.9770 C.2    98  THR98       0.2643
    172  O         10.3020   11.7860    2.6500 O.2    98  THR98      -0.2714
    173  CB        12.9300   12.9230    3.7590 C.3    98  THR98       0.1808
    174  OG1       12.5060   14.2690    3.5030 O.3    98  THR98      -0.2208
    175  CG2       14.3960   12.8920    4.2350 C.3    98  THR98       0.0379
    176  N         11.0880   12.7770    0.7980 N.am   99  GLY99      -0.1939
    177  CA         9.7380   12.9720    0.2640 C.3    99  GLY99       0.2014
    178  C          8.9390   11.6910    0.0770 C.2    99  GLY99       0.2639
    179  O          9.5110   10.6090   -0.0680 O.2    99  GLY99      -0.2714
    180  N          7.6100   11.8220    0.0750 N.am  100  CYS100     -0.1967
    181  CA         6.6850   10.6880   -0.0540 C.3   100  CYS100      0.1712
    182  C          6.3610   10.3380   -1.5150 C.2   100  CYS100      0.2296
    183  O          5.9390    9.2140   -1.8140 O.2   100  CYS100     -0.2864
    184  CB         5.3900   10.9680    0.7150 C.3   100  CYS100      0.0983
    185  SG         5.5870   11.3720    2.4850 S.3   100  CYS100     -0.0798
    186  N         10.2750   11.6310   -4.7350 N.3   103  SER103     -0.1217
    187  CA        11.5490   11.3030   -4.1240 C.3   103  SER103      0.1889
    188  C         12.2130   10.1680   -4.8950 C.2   103  SER103      0.2288
    189  O         11.6190    9.6000   -5.8160 O.2   103  SER103     -0.2866
    190  CB        11.3740   10.9420   -2.6450 C.3   103  SER103      0.2089
    191  OG        10.6570    9.7330   -2.4650 O.3   103  SER103     -0.2183
    192  N         13.0520    7.3890   -3.4670 N.3   105  CYS105     -0.1221
    193  CA        12.3990    6.1710   -2.9740 C.3   105  CYS105      0.1808
    194  C         11.0770    5.9690   -3.7000 C.2   105  CYS105      0.2601
    195  O         10.8370    4.9060   -4.2710 O.2   105  CYS105     -0.2717
    196  CB        12.1430    6.2360   -1.4640 C.3   105  CYS105      0.0970
    197  SG        13.6100    6.3030   -0.4090 S.3   105  CYS105     -0.0800
    198  N         10.2230    6.9940   -3.6690 N.am  106  HIS106     -0.1975
    199  CA         8.9450    6.9420   -4.3560 C.3   106  HIS106      0.1656
    200  C          8.9280    8.0030   -5.4680 C.2   106  HIS106      0.2291
    201  O          8.5010    9.1390   -5.2410 O.2   106  HIS106     -0.2864
    202  CB         7.7580    7.1570   -3.3870 C.3   106  HIS106      0.0771
    203  CG         7.6620    6.1620   -2.2640 C.ar  106  HIS106      0.0820
    204  ND1        7.5250    4.8040   -2.4720 N.ar  106  HIS106     -0.2267
    205  CD2        7.6240    6.3410   -0.9170 C.ar  106  HIS106      0.1154
    206  CE1        7.4370    4.1880   -1.3020 C.ar  106  HIS106      0.1986
    207  NE2        7.4960    5.0970   -0.3390 N.ar  106  HIS106     -0.2212
@<TRIPOS>BOND
     1    55    56    1
     2    55    54    1
     3    16    15   ar
     4    56    50    1
     5    40    41    1
     6    40    39    1
     7    39    38    1
     8    14    15    1
     9    14    13    1
    10    54    51    1
    11   189   188    2
    12    36    35    2
    13    15    17   ar
    14   200   201    2
    15   200   199    1
    16    13    10    1
    17    53    52    2
    18   188   187    1
    19    52    51    1
    20    52    57   am
    21    50    51    1
    22    50    44   am
    23    59    60    2
    24    59    58    1
    25   186   187    1
    26    35    34    1
    27    35    42   am
    28    38    37    1
    29    34    37    1
    30    34    33    1
    31    57    58    1
    32   199   198    1
    33   199   202    1
    34    58    61    1
    35   195   194    2
    36   187   190    1
    37     1     2    1
    38    29    28    2
    39    10     9    1
    40    10    11    1
    41    43    44    1
    42    43    42    1
    43    43    46    1
    44    44    45    2
    45    48    47    1
    46    48    49    1
    47    12    11    2
    48   194   198   am
    49   194   193    1
    50     4     3    2
    51   192   193    1
    52   202   203    1
    53     9     3   am
    54     3     2    1
    55    11    18   am
    56    33    28   am
    57    28    27    1
    58   193   196    1
    59    47    46    1
    60     2     5    1
    61    61    62    1
    62    61    63    1
    63   190   191    1
    64   204   203   ar
    65   204   206   ar
    66   203   205   ar
    67    18    19    1
    68   183   182    2
    69     5     6    1
    70    26    27    1
    71    26    20   am
    72    27    30    1
    73   182   181    1
    74   196   197    1
    75   206   207   ar
    76     6     7    1
    77    31    30    1
    78    20    19    1
    79    20    21    2
    80    19    22    1
    81   205   207   ar
    82   168   166    1
    83   161   162    1
    84    30    32    1
    85   179   178    2
    86   181   180    1
    87   181   184    1
    88     7     8    1
    89   180   178   am
    90   178   177    1
    91   166   165    1
    92   166   167    1
    93   162   165    1
    94   162   163    1
    95   177   176    1
    96    22    23    1
    97    24    23    2
    98    23    25   am
    99   184   185    1
   100   176   171   am
   101   163   169   am
   102   163   164    2
   103   169   170    1
   104   159   157   ar
   105   159   160   ar
   106    95    94    1
   107   171   170    1
   108   171   172    2
   109   157   156   ar
   110    83    82    1
   111   160   158   ar
   112   170   173    1
   113    93    94   ar
   114    93    91   ar
   115    94    92   ar
   116    72    70   ar
   117    72    74   ar
   118   125   124   ar
   119   125   123   ar
   120   156   158   ar
   121   156   155    1
   122    82    81    1
   123   174   173    1
   124    70    69   ar
   125    74    73   ar
   126   173   175    1
   127   124   122   ar
   128    91    89   ar
   129    92    90   ar
   130   115   113    1
   131   155   152    1
   132   142   141    1
   133   123   121   ar
   134   114   112    1
   135    69    71   ar
   136    69    68    1
   137    73    71   ar
   138   141   138    1
   139    81    80    1
   140   113   112    1
   141    68    65    1
   142    89    90   ar
   143    89    88    1
   144   150   149    1
   145   122   121   ar
   146   105   103   ar
   147   105   106   ar
   148   154   153    2
   149   152   153    1
   150   152   151    1
   151   112   109    1
   152   121   120    1
   153   107   106    1
   154   103   101   ar
   155   140   139    2
   156   138   139    1
   157   138   137    1
   158    80    79    1
   159   149   148    1
   160   139   143   am
   161    67    66    2
   162   106   104   ar
   163    88    85    1
   164    65    66    1
   165    65    64    1
   166   143   144    1
   167   109   110    1
   168   109   108    1
   169   111   110    2
   170   144   147    1
   171   144   145    1
   172   120   117    1
   173   101   100    1
   174   101   102   ar
   175   110   116   am
   176    87    86    2
   177    79    76    1
   178   147   148    1
   179    97   100    1
   180    97    96    1
   181    97    98    1
   182    86    96   am
   183    86    85    1
   184   104   102   ar
   185   146   145    2
   186   117   116    1
   187   117   118    1
   188    85    84    1
   189    99    98    2
   190    75    76    1
   191    76    77    1
   192   135   134    1
   193   118   119    2
   194    77    78    2
   195   134   136    1
   196   134   133    2
   197   131   132    1
   198   131   130    1
   199   132   133    1
   200   127   130    1
   201   127   126    1
   202   127   128    1
   203   129   128    2
