@<TRIPOS>MOLECULE
tmp/2a3rB01.pdb
 185 178 0 0 0
SMALL
GASTEIGER

@<TRIPOS>ATOM
      1  N         67.8440  134.3330  -44.4170 N.3    13  ILE13      -0.1245
      2  CA        69.2450  134.7000  -44.4020 C.3    13  ILE13       0.1561
      3  C         69.9490  133.3890  -44.0400 C.2    13  ILE13       0.2260
      4  O         69.5180  132.6760  -43.1330 O.2    13  ILE13      -0.2867
      5  CB        69.4950  135.7960  -43.3490 C.3    13  ILE13       0.0252
      6  CG1       68.9590  137.1310  -43.8790 C.3    13  ILE13       0.0019
      7  CG2       70.9690  135.8780  -43.0030 C.3    13  ILE13       0.0019
      8  CD1       68.9910  138.2580  -42.8690 C.3    13  ILE13       0.0001
      9  N         70.0660  132.1100  -40.5890 N.3    16  PHE16      -0.1241
     10  CA        68.7800  131.6500  -40.0510 C.3    16  PHE16       0.1605
     11  C         68.4270  130.2680  -40.5790 C.2    16  PHE16       0.2264
     12  O         67.9960  129.3950  -39.8230 O.2    16  PHE16      -0.2867
     13  CB        67.6310  132.5820  -40.4360 C.3    16  PHE16       0.0534
     14  CG        67.6960  133.9330  -39.8070 C.ar   16  PHE16      -0.0203
     15  CD1       68.0110  134.0790  -38.4650 C.ar   16  PHE16      -0.0042
     16  CD2       67.4020  135.0650  -40.5550 C.ar   16  PHE16      -0.0042
     17  CE1       68.0290  135.3350  -37.8780 C.ar   16  PHE16      -0.0003
     18  CE2       67.4180  136.3210  -39.9750 C.ar   16  PHE16      -0.0003
     19  CZ        67.7330  136.4530  -38.6340 C.ar   16  PHE16      -0.0000
     20  N         59.3950  141.2720  -39.8940 N.3    39  PRO39      -0.2102
     21  CA        60.4550  142.2550  -39.6380 C.3    39  PRO39       0.1504
     22  C         60.0630  143.7180  -39.7720 C.2    39  PRO39       0.2575
     23  O         59.4050  144.0940  -40.7340 O.2    39  PRO39      -0.2718
     24  CB        61.5310  141.8690  -40.6450 C.3    39  PRO39       0.0282
     25  CG        61.3740  140.3900  -40.7330 C.3    39  PRO39       0.0208
     26  CD        59.8720  140.2220  -40.8080 C.3    39  PRO39       0.0893
     27  N         60.4910  144.5230  -38.7980 N.am   40  LYS40      -0.1980
     28  CA        60.2700  145.9730  -38.7530 C.3    40  LYS40       0.1596
     29  C         58.8430  146.3830  -38.4210 C.2    40  LYS40       0.2287
     30  O         58.4240  147.4950  -38.7310 O.2    40  LYS40      -0.2864
     31  CB        60.6930  146.6280  -40.0840 C.3    40  LYS40       0.0298
     32  CG        61.9790  146.0630  -40.7130 C.3    40  LYS40       0.0038
     33  CD        63.1330  145.9730  -39.7170 C.3    40  LYS40       0.0206
     34  CE        63.4980  147.3380  -39.1460 C.3    40  LYS40       0.1093
     35  NZ        64.4480  147.2090  -38.0050 N.3    40  LYS40      -0.1314
     36  N         58.8140  144.8760  -33.2750 N.3    43  THR43      -0.1218
     37  CA        59.2860  143.8070  -32.4110 C.3    43  THR43       0.1862
     38  C         59.9790  144.3500  -31.1730 C.2    43  THR43       0.2287
     39  O         59.5690  144.0800  -30.0460 O.2    43  THR43      -0.2866
     40  CB        60.2580  142.9020  -33.1700 C.3    43  THR43       0.1770
     41  OG1       59.7480  142.6790  -34.4850 O.3    43  THR43      -0.2211
     42  CG2       60.4050  141.5670  -32.4740 C.3    43  THR43       0.0375
     43  N         66.2520  135.9280  -29.4190 N.3    73  PHE73      -0.1241
     44  CA        65.7740  135.8700  -30.7830 C.3    73  PHE73       0.1605
     45  C         65.9030  134.4030  -31.1920 C.2    73  PHE73       0.2264
     46  O         66.9950  133.9240  -31.4910 O.2    73  PHE73      -0.2867
     47  CB        66.6600  136.7740  -31.6410 C.3    73  PHE73       0.0534
     48  CG        66.1640  136.9850  -33.0350 C.ar   73  PHE73      -0.0203
     49  CD1       65.0080  136.3600  -33.4950 C.ar   73  PHE73      -0.0042
     50  CD2       66.8690  137.8050  -33.9000 C.ar   73  PHE73      -0.0042
     51  CE1       64.5660  136.5510  -34.8080 C.ar   73  PHE73      -0.0003
     52  CE2       66.4360  137.9960  -35.2010 C.ar   73  PHE73      -0.0003
     53  CZ        65.2820  137.3720  -35.6610 C.ar   73  PHE73      -0.0000
     54  N         68.0150  133.4800  -34.3670 N.3    76  VAL76      -0.1245
     55  CA        69.3170  134.1200  -34.4950 C.3    76  VAL76       0.1561
     56  C         70.4910  133.1530  -34.4410 C.2    76  VAL76       0.2260
     57  O         70.5780  132.2820  -33.5730 O.2    76  VAL76      -0.2867
     58  CB        69.5070  135.2720  -33.4650 C.3    76  VAL76       0.0252
     59  CG1       69.9040  134.7310  -32.1040 C.3    76  VAL76       0.0019
     60  CG2       70.5380  136.2490  -33.9900 C.3    76  VAL76       0.0019
     61  N         73.9310  134.4630  -35.5280 N.3    78  ASP78      -0.1239
     62  CA        74.9410  135.4030  -36.0020 C.3    78  ASP78       0.1674
     63  C         76.3830  134.9920  -35.6860 C.2    78  ASP78       0.2266
     64  O         76.6500  134.3050  -34.6960 O.2    78  ASP78      -0.2867
     65  CB        74.6640  136.7920  -35.4160 C.3    78  ASP78       0.1410
     66  CG        73.5410  137.5140  -36.1370 C.2    78  ASP78       0.3668
     67  OD1       72.9830  138.4780  -35.5670 O.co2  78  ASP78      -0.2456
     68  OD2       73.2210  137.1200  -37.2800 O.co2  78  ASP78      -0.2456
     69  N         61.4930  135.9920  -28.9970 N.3    98  LYS98      -0.1245
     70  CA        61.2760  136.7760  -30.2080 C.3    98  LYS98       0.1561
     71  C         61.4750  135.9180  -31.4600 C.2    98  LYS98       0.2260
     72  O         62.3030  135.0140  -31.4720 O.2    98  LYS98      -0.2867
     73  CB        62.2430  137.9680  -30.2530 C.3    98  LYS98       0.0271
     74  CG        62.2950  138.6420  -31.6130 C.3    98  LYS98       0.0035
     75  CD        63.5320  139.5080  -31.7960 C.3    98  LYS98       0.0206
     76  CE        63.6710  139.9650  -33.2530 C.3    98  LYS98       0.1093
     77  NZ        64.8570  140.8320  -33.4780 N.3    98  LYS98      -0.1314
     78  N         60.4930  135.9020  -36.1330 N.3   100  HIS100     -0.1241
     79  CA        59.8420  136.4380  -37.3240 C.3   100  HIS100      0.1621
     80  C         59.3870  135.2720  -38.2010 C.2   100  HIS100      0.2264
     81  O         58.8210  135.4860  -39.2740 O.2   100  HIS100     -0.2867
     82  CB        60.8030  137.2870  -38.1570 C.3   100  HIS100      0.0745
     83  CG        61.3320  138.4850  -37.4440 C.ar  100  HIS100      0.0817
     84  ND1       60.5110  139.4270  -36.8660 N.ar  100  HIS100     -0.2268
     85  CD2       62.6010  138.8980  -37.2160 C.ar  100  HIS100      0.1154
     86  CE1       61.2510  140.3690  -36.3090 C.ar  100  HIS100      0.1986
     87  NE2       62.5230  140.0710  -36.5070 N.ar  100  HIS100     -0.2212
     88  N         62.1850  148.5080  -43.8440 N.3   131  TYR131     -0.1241
     89  CA        62.9510  147.3230  -44.1780 C.3   131  TYR131      0.1605
     90  C         64.0920  147.6320  -45.1760 C.2   131  TYR131      0.2264
     91  O         65.1590  147.0140  -45.1180 O.2   131  TYR131     -0.2867
     92  CB        61.9920  146.2670  -44.7230 C.3   131  TYR131      0.0534
     93  CG        62.3930  144.8220  -44.4800 C.ar  131  TYR131     -0.0201
     94  CD1       63.4640  144.4830  -43.6430 C.ar  131  TYR131     -0.0009
     95  CD2       61.6810  143.7820  -45.0820 C.ar  131  TYR131     -0.0009
     96  CE1       63.8110  143.1310  -43.4170 C.ar  131  TYR131      0.0417
     97  CE2       62.0150  142.4420  -44.8630 C.ar  131  TYR131      0.0417
     98  CZ        63.0760  142.1200  -44.0350 C.ar  131  TYR131      0.1957
     99  OH        63.3650  140.7840  -43.8440 O.3   131  TYR131     -0.2866
    100  N         66.9000  149.1110  -43.2100 N.3   134  PHE134     -0.1241
    101  CA        67.4450  148.0710  -42.3470 C.3   134  PHE134      0.1605
    102  C         68.4060  147.2060  -43.1600 C.2   134  PHE134      0.2264
    103  O         69.4310  146.7600  -42.6600 O.2   134  PHE134     -0.2867
    104  CB        66.3090  147.2120  -41.7790 C.3   134  PHE134      0.0534
    105  CG        66.7470  146.2520  -40.7150 C.ar  134  PHE134     -0.0203
    106  CD1       67.3640  146.7140  -39.5520 C.ar  134  PHE134     -0.0042
    107  CD2       66.5400  144.8830  -40.8670 C.ar  134  PHE134     -0.0042
    108  CE1       67.7760  145.8200  -38.5540 C.ar  134  PHE134     -0.0003
    109  CE2       66.9440  143.9790  -39.8810 C.ar  134  PHE134     -0.0003
    110  CZ        67.5640  144.4480  -38.7180 C.ar  134  PHE134     -0.0000
    111  N         72.1090  146.7470  -41.8660 N.3   138  GLU138     -0.1245
    112  CA        72.3020  145.4020  -41.3340 C.3   138  GLU138      0.1567
    113  C         73.1040  144.6130  -42.3600 C.2   138  GLU138      0.2260
    114  O         72.5720  144.1710  -43.3760 O.2   138  GLU138     -0.2867
    115  CB        70.9470  144.7460  -41.0790 C.3   138  GLU138      0.0388
    116  CG        70.9150  143.8960  -39.8280 C.3   138  GLU138      0.1160
    117  CD        71.6030  142.5570  -40.0060 C.2   138  GLU138      0.3649
    118  OE1       72.0870  142.0010  -38.9990 O.co2 138  GLU138     -0.2457
    119  OE2       71.6430  142.0460  -41.1430 O.co2 138  GLU138     -0.2457
    120  N         74.0580  141.7020  -42.6010 N.3   140  ALA140     -0.1231
    121  CA        73.7560  140.2900  -42.7850 C.3   140  ALA140      0.1694
    122  C         72.7580  140.0590  -43.9330 C.2   140  ALA140      0.2592
    123  O         72.6540  138.9530  -44.4730 O.2   140  ALA140     -0.2718
    124  CB        73.1980  139.6840  -41.4820 C.3   140  ALA140      0.0304
    125  N         72.0320  141.1040  -44.3110 N.am  141  HIS141     -0.1976
    126  CA        71.0670  140.9910  -45.3910 C.3   141  HIS141      0.1656
    127  C         71.7470  141.2340  -46.7280 C.2   141  HIS141      0.2291
    128  O         72.7500  141.9450  -46.7980 O.2   141  HIS141     -0.2864
    129  CB        69.9520  142.0190  -45.2130 C.3   141  HIS141      0.0771
    130  CG        69.1380  141.8220  -43.9760 C.ar  141  HIS141      0.0820
    131  ND1       69.6910  141.8360  -42.7150 N.ar  141  HIS141     -0.2267
    132  CD2       67.8110  141.6150  -43.8030 C.ar  141  HIS141      0.1154
    133  CE1       68.7400  141.6470  -41.8180 C.ar  141  HIS141      0.1986
    134  NE2       67.5890  141.5100  -42.4520 N.ar  141  HIS141     -0.2212
    135  N         62.6030  136.2130  -44.9410 N.3   161  TYR161     -0.1241
    136  CA        61.3770  135.8580  -44.2340 C.3   161  TYR161      0.1605
    137  C         60.1670  135.8210  -45.1530 C.2   161  TYR161      0.2264
    138  O         59.0710  135.4770  -44.7290 O.2   161  TYR161     -0.2867
    139  CB        61.1260  136.8000  -43.0490 C.3   161  TYR161      0.0534
    140  CG        61.9690  136.4860  -41.8370 C.ar  161  TYR161     -0.0201
    141  CD1       61.7790  135.3060  -41.1270 C.ar  161  TYR161     -0.0009
    142  CD2       62.9640  137.3640  -41.4030 C.ar  161  TYR161     -0.0009
    143  CE1       62.5570  134.9950  -40.0100 C.ar  161  TYR161      0.0417
    144  CE2       63.7470  137.0680  -40.2800 C.ar  161  TYR161      0.0417
    145  CZ        63.5320  135.8780  -39.5930 C.ar  161  TYR161      0.1957
    146  OH        64.2790  135.5720  -38.4830 O.3   161  TYR161     -0.2866
    147  N         70.0850  148.9770  -29.9640 N.3   232  TYR232     -0.1241
    148  CA        71.0280  148.1210  -30.6940 C.3   232  TYR232      0.1605
    149  C         72.4340  148.6740  -30.9970 C.2   232  TYR232      0.2264
    150  O         73.1480  148.1050  -31.8330 O.2   232  TYR232     -0.2867
    151  CB        70.3930  147.6360  -32.0150 C.3   232  TYR232      0.0534
    152  CG        69.4010  146.4950  -31.8660 C.ar  232  TYR232     -0.0201
    153  CD1       68.0580  146.7370  -31.5680 C.ar  232  TYR232     -0.0009
    154  CD2       69.8140  145.1650  -32.0050 C.ar  232  TYR232     -0.0009
    155  CE1       67.1490  145.6810  -31.4150 C.ar  232  TYR232      0.0417
    156  CE2       68.9170  144.1050  -31.8510 C.ar  232  TYR232      0.0417
    157  CZ        67.5870  144.3710  -31.5570 C.ar  232  TYR232      0.1957
    158  OH        66.6940  143.3310  -31.4080 O.3   232  TYR232     -0.2866
    159  N         77.9000  143.9090  -37.9220 N.3   239  LEU239     -0.1231
    160  CA        76.5870  143.2800  -37.9090 C.3   239  LEU239      0.1693
    161  C         75.6030  144.3860  -38.2820 C.2   239  LEU239      0.2591
    162  O         74.7870  144.2380  -39.1940 O.2   239  LEU239     -0.2718
    163  CB        76.2620  142.7520  -36.5030 C.3   239  LEU239      0.0284
    164  CG        76.5760  141.3060  -36.0920 C.3   239  LEU239      0.0019
    165  CD1       75.5630  140.3660  -36.7320 C.3   239  LEU239      0.0001
    166  CD2       77.9970  140.9300  -36.4850 C.3   239  LEU239      0.0001
    167  N         75.7110  145.4990  -37.5600 N.am  240  MET240     -0.1979
    168  CA        74.8670  146.6720  -37.7600 C.3   240  MET240      0.1605
    169  C         75.7130  147.9440  -37.8140 C.2   240  MET240      0.2287
    170  O         76.4570  148.2370  -36.8830 O.2   240  MET240     -0.2864
    171  CB        73.8590  146.8080  -36.6150 C.3   240  MET240      0.0413
    172  CG        72.6920  145.8430  -36.6590 C.3   240  MET240      0.0598
    173  SD        71.4960  146.2370  -35.3630 S.3   240  MET240     -0.1393
    174  CE        70.7690  144.6540  -35.0930 C.3   240  MET240      0.0692
    175  N         69.1750  152.0660  -36.1020 N.3   247  PHE247     -0.1241
    176  CA        68.1970  151.0120  -35.9180 C.3   247  PHE247      0.1605
    177  C         66.8880  151.7190  -35.5910 C.2   247  PHE247      0.2264
    178  O         65.8210  151.3170  -36.0500 O.2   247  PHE247     -0.2867
    179  CB        68.5600  150.0810  -34.7660 C.3   247  PHE247      0.0534
    180  CG        67.5770  148.9610  -34.5890 C.ar  247  PHE247     -0.0203
    181  CD1       67.7230  147.7680  -35.2930 C.ar  247  PHE247     -0.0042
    182  CD2       66.4550  149.1270  -33.7800 C.ar  247  PHE247     -0.0042
    183  CE1       66.7680  146.7600  -35.1960 C.ar  247  PHE247     -0.0003
    184  CE2       65.4900  148.1240  -33.6780 C.ar  247  PHE247     -0.0003
    185  CZ        65.6500  146.9390  -34.3900 C.ar  247  PHE247     -0.0000
@<TRIPOS>BOND
     1   128   127    2
     2   127   126    1
     3   126   129    1
     4   126   125    1
     5   129   130    1
     6    90    91    2
     7    90    89    1
     8   137   138    2
     9   137   136    1
    10    95    97   ar
    11    95    93   ar
    12   135   136    1
    13    97    98   ar
    14    92    93    1
    15    92    89    1
    16    93    94   ar
    17   123   122    2
    18     1     2    1
    19     2     3    1
    20     2     5    1
    21   125   122   am
    22   136   139    1
    23    89    88    1
    24     3     4    2
    25    98    99    1
    26    98    96   ar
    27   130   132   ar
    28   130   131   ar
    29   122   121    1
    30     6     5    1
    31     6     8    1
    32   132   134   ar
    33    94    96   ar
    34   114   113    2
    35     5     7    1
    36   100   101    1
    37   102   103    2
    38   102   101    1
    39   139   140    1
    40   121   120    1
    41   121   124    1
    42   131   133   ar
    43   134   133   ar
    44   113   112    1
    45   101   104    1
    46   111   112    1
    47   140   142   ar
    48   140   141   ar
    49   104   105    1
    50   142   144   ar
    51   112   115    1
    52   119   117   ar
    53   141   143   ar
    54   115   116    1
    55   107   105   ar
    56   107   109   ar
    57    26    25    1
    58    26    20    1
    59    23    22    2
    60    25    24    1
    61   105   106   ar
    62    32    31    1
    63    32    33    1
    64    24    21    1
    65     9    10    1
    66    11    10    1
    67    11    12    2
    68    16    18   ar
    69    16    14   ar
    70    13    10    1
    71    13    14    1
    72   144   145   ar
    73    31    28    1
    74   143   145   ar
    75   117   116    1
    76   117   118   ar
    77    18    19   ar
    78    20    21    1
    79   109   110   ar
    80    14    15   ar
    81    22    21    1
    82    22    27   am
    83    33    34    1
    84   145   146    1
    85   106   108   ar
    86    81    80    2
    87   162   161    2
    88    34    35    1
    89    27    28    1
    90    28    29    1
    91    30    29    2
    92   110   108   ar
    93    19    17   ar
    94    15    17   ar
    95   161   160    1
    96   161   167   am
    97    80    79    1
    98    82    83    1
    99    82    79    1
   100   159   160    1
   101   160   163    1
   102   169   168    1
   103   169   170    2
   104   168   167    1
   105   168   171    1
   106    83    85   ar
   107    83    84   ar
   108    79    78    1
   109    68    66   ar
   110    85    87   ar
   111    84    86   ar
   112   165   164    1
   113   172   171    1
   114   172   173    1
   115    87    86   ar
   116   163   164    1
   117   166   164    1
   118    66    67   ar
   119    66    65    1
   120   175   176    1
   121   178   177    2
   122    62    63    1
   123    62    61    1
   124    62    65    1
   125   176   177    1
   126   176   179    1
   127    63    64    2
   128    53    52   ar
   129    53    51   ar
   130   173   174    1
   131   181   183   ar
   132   181   180   ar
   133    52    50   ar
   134   183   185   ar
   135    51    49   ar
   136   179   180    1
   137   180   182   ar
   138    55    56    1
   139    55    54    1
   140    55    58    1
   141    41    40    1
   142    56    57    2
   143   185   184   ar
   144    60    58    1
   145    50    48   ar
   146   182   184   ar
   147    49    48   ar
   148    77    76    1
   149    58    59    1
   150    36    37    1
   151    76    75    1
   152    40    42    1
   153    40    37    1
   154    48    47    1
   155    37    38    1
   156   151   152    1
   157   151   148    1
   158   154   152   ar
   159   154   156   ar
   160   152   153   ar
   161   156   157   ar
   162   150   149    2
   163    75    74    1
   164    47    44    1
   165    74    73    1
   166   153   155   ar
   167   157   155   ar
   168   157   158    1
   169    46    45    2
   170    72    71    2
   171    71    70    1
   172    45    44    1
   173    38    39    2
   174   149   148    1
   175    44    43    1
   176   148   147    1
   177    73    70    1
   178    70    69    1
