@<TRIPOS>MOLECULE
tmp/2a3xD00.pdb
 100 92 0 0 0
SMALL
GASTEIGER

@<TRIPOS>ATOM
      1  N        -23.5500   78.9260   83.3100 N.3    58  ASP58      -0.1225
      2  CA       -23.4800   78.0710   82.1170 C.3    58  ASP58       0.1805
      3  C        -22.6040   78.7310   81.0560 C.2    58  ASP58       0.2597
      4  O        -22.5740   79.9600   80.9550 O.2    58  ASP58      -0.2718
      5  CB       -24.8930   77.7820   81.5800 C.3    58  ASP58       0.1424
      6  CG       -24.8930   77.1650   80.1800 C.2    58  ASP58       0.3668
      7  OD1      -24.4070   76.0250   80.0050 O.co2  58  ASP58      -0.2456
      8  OD2      -25.3700   77.7470   79.1840 O.co2  58  ASP58      -0.2456
      9  N        -21.8950   77.9180   80.2750 N.am   59  ASN59      -0.1974
     10  CA       -20.9850   78.4200   79.2440 C.3    59  ASN59       0.1688
     11  C        -19.9480   79.4010   79.7870 C.2    59  ASN59       0.2292
     12  O        -19.7920   80.5020   79.2570 O.2    59  ASN59      -0.2864
     13  CB       -21.7570   79.0830   78.0950 C.3    59  ASN59       0.1181
     14  CG       -22.5890   78.1010   77.3020 C.2    59  ASN59       0.2629
     15  OD1      -22.4010   76.8880   77.3970 O.2    59  ASN59      -0.2716
     16  ND2      -23.5270   78.6200   76.5160 N.am   59  ASN59      -0.0877
     17  N        -16.2550   78.1660   76.7810 N.3    62  LEU62      -0.1245
     18  CA       -16.6220   77.1150   75.8470 C.3    62  LEU62       0.1561
     19  C        -16.0870   77.3410   74.4420 C.2    62  LEU62       0.2260
     20  O        -16.2980   78.3940   73.8420 O.2    62  LEU62      -0.2867
     21  CB       -18.1400   76.9240   75.8270 C.3    62  LEU62       0.0270
     22  CG       -18.7460   76.1340   74.6660 C.3    62  LEU62       0.0019
     23  CD1      -18.7000   74.6500   74.9470 C.3    62  LEU62       0.0001
     24  CD2      -20.1610   76.5890   74.4410 C.3    62  LEU62       0.0001
     25  N        -16.5530   76.1790   70.7880 N.3    64  TYR64      -0.1241
     26  CA       -17.6940   75.6560   70.0740 C.3    64  TYR64       0.1605
     27  C        -17.4720   75.9010   68.5950 C.2    64  TYR64       0.2264
     28  O        -17.0480   76.9820   68.1910 O.2    64  TYR64      -0.2867
     29  CB       -18.9450   76.3730   70.5770 C.3    64  TYR64       0.0534
     30  CG       -20.2680   75.8340   70.0970 C.ar   64  TYR64      -0.0201
     31  CD1      -20.8820   74.7630   70.7360 C.ar   64  TYR64      -0.0009
     32  CD2      -20.9310   76.4310   69.0310 C.ar   64  TYR64      -0.0009
     33  CE1      -22.1130   74.2810   70.3090 C.ar   64  TYR64       0.0417
     34  CE2      -22.1660   75.9600   68.5960 C.ar   64  TYR64       0.0417
     35  CZ       -22.7530   74.8870   69.2390 C.ar   64  TYR64       0.1957
     36  OH       -23.9760   74.4210   68.8060 O.3    64  TYR64      -0.2866
     37  N        -19.4460   76.1340   65.2790 N.3    66  GLU66      -0.1245
     38  CA       -20.8280   76.2970   64.8210 C.3    66  GLU66       0.1567
     39  C        -21.0430   75.7090   63.4240 C.2    66  GLU66       0.2260
     40  O        -22.1170   75.1650   63.1250 O.2    66  GLU66      -0.2867
     41  CB       -21.2550   77.7760   64.8770 C.3    66  GLU66       0.0388
     42  CG       -20.6820   78.5640   66.0570 C.3    66  GLU66       0.1160
     43  CD       -21.6900   79.5020   66.7270 C.2    66  GLU66       0.3649
     44  OE1      -22.7900   79.7440   66.1650 O.co2  66  GLU66      -0.2457
     45  OE2      -21.3770   80.0090   67.8300 O.co2  66  GLU66      -0.2457
     46  N        -16.7240   81.0150   73.8890 N.3    74  TYR74      -0.1241
     47  CA       -17.6780   81.6330   74.7950 C.3    74  TYR74       0.1605
     48  C        -17.0020   81.9000   76.1280 C.2    74  TYR74       0.2264
     49  O        -16.5200   80.9670   76.7630 O.2    74  TYR74      -0.2867
     50  CB       -18.8690   80.7030   75.0300 C.3    74  TYR74       0.0534
     51  CG       -19.9010   80.6570   73.9210 C.ar   74  TYR74      -0.0201
     52  CD1      -19.7160   79.8510   72.7990 C.ar   74  TYR74      -0.0009
     53  CD2      -21.0770   81.3890   74.0140 C.ar   74  TYR74      -0.0009
     54  CE1      -20.6660   79.7940   71.7880 C.ar   74  TYR74       0.0417
     55  CE2      -22.0370   81.3370   73.0110 C.ar   74  TYR74       0.0417
     56  CZ       -21.8260   80.5400   71.9000 C.ar   74  TYR74       0.1957
     57  OH       -22.7780   80.4930   70.9030 O.3    74  TYR74      -0.2866
     58  N        -20.0000   85.4300   73.5320 N.3    79  LYS79      -0.1245
     59  CA       -19.2630   84.7240   72.4780 C.3    79  LYS79       0.1561
     60  C        -18.5050   85.6190   71.5070 C.2    79  LYS79       0.2260
     61  O        -18.8450   86.7860   71.3130 O.2    79  LYS79      -0.2867
     62  CB       -20.1940   83.7850   71.6960 C.3    79  LYS79       0.0271
     63  CG       -20.5000   84.1830   70.2510 C.3    79  LYS79       0.0035
     64  CD       -21.2910   83.0980   69.5330 C.3    79  LYS79       0.0206
     65  CE       -22.0730   83.6690   68.3580 C.3    79  LYS79       0.1093
     66  NZ       -23.5460   83.6570   68.6030 N.3    79  LYS79      -0.1314
     67  N        -21.7110   69.0900   75.3840 N.3   136  GLU136     -0.1245
     68  CA       -21.8550   70.4800   75.8230 C.3   136  GLU136      0.1567
     69  C        -22.7280   70.5260   77.0710 C.2   136  GLU136      0.2260
     70  O        -23.8690   70.0530   77.0570 O.2   136  GLU136     -0.2867
     71  CB       -22.4900   71.3360   74.7240 C.3   136  GLU136      0.0388
     72  CG       -22.0660   72.7980   74.7240 C.3   136  GLU136      0.1160
     73  CD       -22.6680   73.6050   75.8620 C.2   136  GLU136      0.3649
     74  OE1      -23.9070   73.7230   75.9250 O.co2 136  GLU136     -0.2457
     75  OE2      -21.9000   74.1300   76.6990 O.co2 136  GLU136     -0.2457
     76  N        -25.1400   72.0680   79.9120 N.3   138  ASP138     -0.1239
     77  CA       -26.0930   73.1260   80.2090 C.3   138  ASP138      0.1674
     78  C        -26.2990   73.2540   81.7200 C.2   138  ASP138      0.2266
     79  O        -26.8550   74.2440   82.1990 O.2   138  ASP138     -0.2867
     80  CB       -27.4090   72.9180   79.4550 C.3   138  ASP138      0.1410
     81  CG       -27.2770   73.1830   77.9610 C.2   138  ASP138      0.3668
     82  OD1      -26.2280   73.7010   77.5230 O.co2 138  ASP138     -0.2456
     83  OD2      -28.1690   72.9010   77.1320 O.co2 138  ASP138     -0.2456
     84  N        -26.7390   67.6180   75.3790 N.3   145  ASP145     -0.1239
     85  CA       -27.5820   67.7700   74.1950 C.3   145  ASP145      0.1674
     86  C        -26.9680   66.9380   73.0670 C.2   145  ASP145      0.2266
     87  O        -25.7870   67.0980   72.7280 O.2   145  ASP145     -0.2867
     88  CB       -27.6710   69.2640   73.8320 C.3   145  ASP145      0.1410
     89  CG       -28.2890   69.5300   72.4590 C.2   145  ASP145      0.3668
     90  OD1      -28.5770   68.5760   71.7080 O.co2 145  ASP145     -0.2456
     91  OD2      -28.5170   70.6920   72.0460 O.co2 145  ASP145     -0.2456
     92  N        -25.4380   68.2840   69.7310 N.3   148  GLN148     -0.1245
     93  CA       -24.2870   69.1270   70.0300 C.3   148  GLN148      0.1566
     94  C        -23.0740   68.2710   70.3460 C.2   148  GLN148      0.2260
     95  O        -21.9610   68.7840   70.4580 O.2   148  GLN148     -0.2867
     96  CB       -24.5930   70.0340   71.2200 C.3   148  GLN148      0.0367
     97  CG       -24.8080   71.4940   70.8530 C.3   148  GLN148      0.0905
     98  CD       -25.3690   72.3130   72.0030 C.2   148  GLN148      0.2608
     99  OE1      -25.5090   71.8190   73.1220 O.2   148  GLN148     -0.2717
    100  NE2      -25.6910   73.5630   71.7290 N.am  148  GLN148     -0.0878
@<TRIPOS>BOND
     1    40    39    2
     2    39    38    1
     3    38    41    1
     4    38    37    1
     5    41    42    1
     6    42    43    1
     7    44    43   ar
     8    43    45   ar
     9    28    27    2
    10    65    66    1
    11    65    64    1
    12    27    26    1
    13    34    32   ar
    14    34    35   ar
    15    36    35    1
    16    32    30   ar
    17    35    33   ar
    18    64    63    1
    19    92    93    1
    20    93    94    1
    21    93    96    1
    22    26    29    1
    23    26    25    1
    24    30    29    1
    25    30    31   ar
    26    63    62    1
    27    33    31   ar
    28    94    95    2
    29    97    96    1
    30    97    98    1
    31    57    56    1
    32    61    60    2
    33    60    59    1
    34    62    59    1
    35    90    89   ar
    36   100    98   am
    37    54    56   ar
    38    54    52   ar
    39    56    55   ar
    40    98    99    2
    41    91    89   ar
    42    89    88    1
    43    59    58    1
    44    87    86    2
    45    52    51   ar
    46    55    53   ar
    47    86    85    1
    48    88    85    1
    49    20    19    2
    50    46    47    1
    51    51    53   ar
    52    51    50    1
    53    85    84    1
    54    24    22    1
    55    19    18    1
    56    22    23    1
    57    22    21    1
    58    72    71    1
    59    72    73    1
    60    71    68    1
    61    47    50    1
    62    47    48    1
    63    67    68    1
    64    68    69    1
    65    21    18    1
    66    18    17    1
    67    73    74   ar
    68    73    75   ar
    69    48    49    2
    70    16    14   am
    71    70    69    2
    72    83    81   ar
    73    14    15    2
    74    14    13    1
    75    82    81   ar
    76    81    80    1
    77    13    10    1
    78     8     6   ar
    79    10    11    1
    80    10     9    1
    81    12    11    2
    82    80    77    1
    83    76    77    1
    84     7     6   ar
    85     6     5    1
    86    77    78    1
    87     9     3   am
    88     4     3    2
    89     3     2    1
    90     5     2    1
    91    78    79    2
    92     2     1    1
