@<TRIPOS>MOLECULE
tmp/2a49A00.pdb
 76 69 0 0 0
SMALL
GASTEIGER

@<TRIPOS>ATOM
      1  N         33.2140   60.2590    8.6460 N.3    45  SER45      -0.1217
      2  CA        32.7440   59.1130    7.8770 C.3    45  SER45       0.1889
      3  C         33.2230   57.7690    8.3730 C.2    45  SER45       0.2288
      4  O         32.7650   56.7370    7.8820 O.2    45  SER45      -0.2866
      5  CB        33.0960   59.2590    6.3890 C.3    45  SER45       0.2089
      6  OG        32.3460   60.3070    5.7640 O.3    45  SER45      -0.2183
      7  N         32.0000   56.2920    0.3860 N.3   105  SER105     -0.1217
      8  CA        31.5890   57.3030    1.3800 C.3   105  SER105      0.1889
      9  C         30.3100   58.0130    0.9440 C.2   105  SER105      0.2288
     10  O         30.1450   59.2310    1.0990 O.2   105  SER105     -0.2866
     11  CB        32.6840   58.3360    1.6730 C.3   105  SER105      0.2089
     12  OG        32.7090   58.6070    3.0890 O.3   105  SER105     -0.2183
     13  N         26.9600   59.4270    1.3370 N.3   107  ASN107     -0.1240
     14  CA        26.2080   59.8700    2.5130 C.3   107  ASN107      0.1653
     15  C         24.7390   59.5040    2.5610 C.2   107  ASN107      0.2266
     16  O         24.2130   59.2470    3.6400 O.2   107  ASN107     -0.2867
     17  CB        26.3690   61.3740    2.7070 C.3   107  ASN107      0.1155
     18  CG        27.7710   61.7330    3.0940 C.2   107  ASN107      0.2627
     19  OD1       28.3520   61.1320    4.0130 O.2   107  ASN107     -0.2716
     20  ND2       28.3450   62.6970    2.3950 N.am  107  ASN107     -0.0877
     21  N         29.7960   65.9540   10.6690 N.3   145  ASN145     -0.1240
     22  CA        31.1810   66.3220   10.4060 C.3   145  ASN145      0.1653
     23  C         31.5400   67.7490   10.8210 C.2   145  ASN145      0.2266
     24  O         32.6540   68.2210   10.5630 O.2   145  ASN145     -0.2867
     25  CB        31.4770   66.1590    8.9140 C.3   145  ASN145      0.1155
     26  CG        31.2420   64.7520    8.4220 C.2   145  ASN145      0.2627
     27  OD1       31.8260   63.8020    8.9350 O.2   145  ASN145     -0.2716
     28  ND2       30.3870   64.6090    7.4120 N.am  145  ASN145     -0.0877
     29  N         38.1860   56.1380    5.6030 N.3   210  THR210     -0.1203
     30  CA        38.6360   57.4660    6.0030 C.3   210  THR210      0.1994
     31  C         37.4570   58.4030    6.2060 C.2   210  THR210      0.2618
     32  O         36.3190   58.0790    5.8860 O.2   210  THR210     -0.2717
     33  CB        39.5890   58.1100    4.9680 C.3   210  THR210      0.1784
     34  OG1       38.9090   58.2410    3.7170 O.3   210  THR210     -0.2211
     35  CG2       40.8390   57.2670    4.7790 C.3   210  THR210      0.0376
     36  N         37.7600   59.5600    6.7970 N.am  211  GLY211     -0.1942
     37  CA        36.7660   60.5880    7.0220 C.3   211  GLY211      0.2014
     38  C         37.4160   61.9600    7.0850 C.2   211  GLY211      0.2639
     39  O         38.6240   62.0970    7.2950 O.2   211  GLY211     -0.2714
     40  N         36.5960   62.9870    6.8910 N.am  212  ALA212     -0.1963
     41  CA        37.0590   64.3700    6.9480 C.3   212  ALA212      0.1728
     42  C         35.9220   65.2350    7.4570 C.2   212  ALA212      0.2617
     43  O         34.7360   64.9110    7.2610 O.2   212  ALA212     -0.2715
     44  CB        37.4980   64.8510    5.5550 C.3   212  ALA212      0.0334
     45  N         36.3000   66.3190    8.1180 N.am  213  GLY213     -0.1940
     46  CA        35.3130   67.2430    8.6490 C.3   213  GLY213      0.2014
     47  C         35.8340   68.6680    8.7240 C.2   213  GLY213      0.2638
     48  O         36.8830   69.0120    8.1650 O.2   213  GLY213     -0.2714
     49  N         35.1000   69.5020    9.4410 N.am  214  GLU214     -0.1977
     50  CA        35.4820   70.8940    9.5850 C.3   214  GLU214      0.1602
     51  C         36.6510   71.1160   10.5480 C.2   214  GLU214      0.2287
     52  O         37.0250   70.2330   11.3430 O.2   214  GLU214     -0.2864
     53  CB        34.2780   71.7070   10.0670 C.3   214  GLU214      0.0415
     54  CG        33.0720   71.6430    9.1470 C.3   214  GLU214      0.1163
     55  CD        33.3400   72.3000    7.8090 C.2   214  GLU214      0.3649
     56  OE1       34.0870   71.7180    6.9910 O.co2 214  GLU214     -0.2457
     57  OE2       32.8110   73.4070    7.5790 O.co2 214  GLU214     -0.2457
     58  N         44.1550   70.1030    3.3220 N.3   245  MET245     -0.1245
     59  CA        43.8490   68.6750    3.2450 C.3   245  MET245      0.1570
     60  C         45.1100   67.8970    2.8640 C.2   245  MET245      0.2261
     61  O         45.3860   66.8300    3.4190 O.2   245  MET245     -0.2867
     62  CB        42.7550   68.4070    2.2090 C.3   245  MET245      0.0387
     63  CG        42.4100   66.9320    2.0360 C.3   245  MET245      0.0595
     64  SD        41.6190   66.2390    3.5070 S.3   245  MET245     -0.1393
     65  CE        40.0790   67.0030    3.4290 C.3   245  MET245      0.0692
     66  N         47.3510   67.4480    5.8760 N.3   248  ARG248     -0.1245
     67  CA        46.7850   66.5280    6.8480 C.3   248  ARG248      0.1563
     68  C         46.9650   65.1130    6.3120 C.2   248  ARG248      0.2260
     69  O         47.3030   64.2270    7.0690 O.2   248  ARG248     -0.2867
     70  CB        45.3110   66.8370    7.1060 C.3   248  ARG248      0.0307
     71  CG        45.1420   68.0440    8.0390 C.3   248  ARG248      0.0489
     72  CD        44.0680   69.0100    7.5090 C.3   248  ARG248      0.2205
     73  NE        42.7260   68.4470    7.5560 N.pl3 248  ARG248     -0.0865
     74  CZ        41.7040   68.8790    6.8250 C.cat 248  ARG248      0.5346
     75  NH1       41.8480   69.8870    5.9640 N.pl3 248  ARG248      0.1354
     76  NH2       40.5110   68.3130    6.9640 N.pl3 248  ARG248      0.1354
@<TRIPOS>BOND
     1     7     8    1
     2     9    10    2
     3     9     8    1
     4    13    14    1
     5     8    11    1
     6    11    12    1
     7    63    62    1
     8    63    64    1
     9    62    59    1
    10    20    18   am
    11    14    15    1
    12    14    17    1
    13    15    16    2
    14    17    18    1
    15    60    59    1
    16    60    61    2
    17    18    19    2
    18    59    58    1
    19    65    64    1
    20    34    33    1
    21    35    33    1
    22    33    30    1
    23    44    41    1
    24    29    30    1
    25     6     5    1
    26    66    67    1
    27    32    31    2
    28    75    74    1
    29    30    31    1
    30    31    36   am
    31    68    67    1
    32    68    69    2
    33     5     2    1
    34    36    37    1
    35    74    76    1
    36    74    73    2
    37    67    70    1
    38    40    41    1
    39    40    38   am
    40    41    42    1
    41    56    55   ar
    42    37    38    1
    43    38    39    2
    44    70    71    1
    45    43    42    2
    46    28    26   am
    47    42    45   am
    48    72    73    1
    49    72    71    1
    50    57    55   ar
    51    55    54    1
    52     2     3    1
    53     2     1    1
    54     4     3    2
    55    45    46    1
    56    48    47    2
    57    26    25    1
    58    26    27    2
    59    46    47    1
    60    47    49   am
    61    25    22    1
    62    54    53    1
    63    49    50    1
    64    50    53    1
    65    50    51    1
    66    22    21    1
    67    22    23    1
    68    51    52    2
    69    24    23    2
