@<TRIPOS>MOLECULE
tmp/2a4fB00.pdb
 105 98 0 0 0
SMALL
GASTEIGER

@<TRIPOS>ATOM
      1  N          8.7670   34.2900   -1.2090 N.3     8  ARG8       -0.1245
      2  CA         9.5020   33.0380   -1.3910 C.3     8  ARG8        0.1563
      3  C         10.3640   33.1310   -2.6580 C.2     8  ARG8        0.2260
      4  O          9.9040   33.6180   -3.6990 O.2     8  ARG8       -0.2867
      5  CB         8.5370   31.8610   -1.5300 C.3     8  ARG8        0.0307
      6  CG         7.7770   31.5280   -0.2580 C.3     8  ARG8        0.0489
      7  CD         6.8540   30.3400   -0.4620 C.3     8  ARG8        0.2205
      8  NE         6.0610   30.1000    0.7390 N.pl3   8  ARG8       -0.0865
      9  CZ         5.0600   29.2330    0.8240 C.cat   8  ARG8        0.5346
     10  NH1        4.4080   29.0980    1.9720 N.pl3   8  ARG8        0.1354
     11  NH2        4.7060   28.5050   -0.2290 N.pl3   8  ARG8        0.1354
     12  N         11.8360   26.0970   -5.2800 N.3    23  LEU23      -0.1245
     13  CA        12.2570   26.9830   -4.2060 C.3    23  LEU23       0.1561
     14  C         13.7580   26.9480   -3.9370 C.2    23  LEU23       0.2260
     15  O         14.3150   25.8860   -3.6500 O.2    23  LEU23      -0.2867
     16  CB        11.5110   26.5730   -2.9350 C.3    23  LEU23       0.0270
     17  CG        11.6170   27.4180   -1.6740 C.3    23  LEU23       0.0019
     18  CD1       10.9690   28.7620   -1.9150 C.3    23  LEU23       0.0001
     19  CD2       10.9370   26.6870   -0.5240 C.3    23  LEU23       0.0001
     20  N         16.3880   26.9750   -1.6740 N.3    25  ASP25      -0.1239
     21  CA        16.3780   26.7400   -0.2360 C.3    25  ASP25       0.1674
     22  C         17.7360   26.4340    0.3940 C.2    25  ASP25       0.2266
     23  O         18.2200   25.3010    0.3210 O.2    25  ASP25      -0.2867
     24  CB        15.4070   25.5900    0.0150 C.3    25  ASP25       0.1410
     25  CG        15.1400   25.3440    1.4780 C.2    25  ASP25       0.3668
     26  OD1       15.7530   26.0160    2.3260 O.co2  25  ASP25      -0.2456
     27  OD2       14.3050   24.4680    1.7640 O.co2  25  ASP25      -0.2456
     28  N         18.3540   26.2050    3.4360 N.3    27  GLY27      -0.1210
     29  CA        18.1740   25.3480    4.5970 C.3    27  GLY27       0.1956
     30  C         18.0700   23.8730    4.2200 C.2    27  GLY27       0.2612
     31  O         17.9720   23.0120    5.0820 O.2    27  GLY27      -0.2717
     32  N         18.0880   23.5780    2.9240 N.am   28  ALA28      -0.1965
     33  CA        17.9930   22.2020    2.4470 C.3    28  ALA28       0.1728
     34  C         19.3590   21.6830    1.9750 C.2    28  ALA28       0.2616
     35  O         20.0090   22.3190    1.1480 O.2    28  ALA28      -0.2715
     36  CB        16.9770   22.1310    1.3030 C.3    28  ALA28       0.0334
     37  N         19.8010   20.5370    2.4910 N.am   29  ASP29      -0.1957
     38  CA        21.0930   19.9980    2.0620 C.3    29  ASP29       0.1840
     39  C         21.0070   19.4970    0.6220 C.2    29  ASP29       0.2622
     40  O         21.9550   19.6370   -0.1670 O.2    29  ASP29      -0.2715
     41  CB        21.5380   18.8020    2.9260 C.3    29  ASP29       0.1450
     42  CG        21.7720   19.1570    4.3870 C.2    29  ASP29       0.3671
     43  OD1       21.9870   20.3400    4.7140 O.co2  29  ASP29      -0.2456
     44  OD2       21.7600   18.2170    5.2130 O.co2  29  ASP29      -0.2456
     45  N         19.8570   18.9200    0.2870 N.am   30  ASP30      -0.1971
     46  CA        19.6460   18.3200   -1.0180 C.3    30  ASP30       0.1709
     47  C         18.4990   18.9150   -1.8240 C.2    30  ASP30       0.2293
     48  O         17.6490   19.6480   -1.3060 O.2    30  ASP30      -0.2864
     49  CB        19.3770   16.8250   -0.8280 C.3    30  ASP30       0.1436
     50  CG        20.2260   16.2140    0.2700 C.2    30  ASP30       0.3671
     51  OD1       21.4330   16.0020    0.0520 O.co2  30  ASP30      -0.2456
     52  OD2       19.6830   15.9610    1.3630 O.co2  30  ASP30      -0.2456
     53  N         15.1700   18.1910   -3.7790 N.3    32  VAL32      -0.1245
     54  CA        14.1100   17.1860   -3.7550 C.3    32  VAL32       0.1561
     55  C         12.9500   17.7290   -4.5690 C.2    32  VAL32       0.2260
     56  O         12.5030   18.8510   -4.3440 O.2    32  VAL32      -0.2867
     57  CB        13.6100   16.9480   -2.3110 C.3    32  VAL32       0.0252
     58  CG1       12.8380   15.6300   -2.2330 C.3    32  VAL32       0.0019
     59  CG2       14.7910   16.9780   -1.3390 C.3    32  VAL32       0.0019
     60  N         15.3320   11.8470    4.1390 N.3    47  ILE47      -0.1231
     61  CA        15.6340   13.2310    4.4490 C.3    47  ILE47       0.1692
     62  C         14.8680   13.6150    5.7050 C.2    47  ILE47       0.2593
     63  O         13.6720   13.3340    5.8290 O.2    47  ILE47      -0.2718
     64  CB        15.2750   14.1830    3.2800 C.3    47  ILE47       0.0266
     65  CG1       13.7660   14.2790    3.0990 C.3    47  ILE47       0.0019
     66  CG2       15.8930   13.6640    1.9770 C.3    47  ILE47       0.0020
     67  CD1       13.3760   15.0870    1.8560 C.3    47  ILE47       0.0001
     68  N         15.5780   14.2310    6.6430 N.am   48  GLY48      -0.1942
     69  CA        14.9670   14.6470    7.8910 C.3    48  GLY48       0.2014
     70  C         14.4960   16.0850    7.8310 C.2    48  GLY48       0.2639
     71  O         15.2750   16.9790    7.5180 O.2    48  GLY48      -0.2714
     72  N         13.2220   16.3090    8.1370 N.am   49  GLY49      -0.1939
     73  CA        12.6730   17.6520    8.0940 C.3    49  GLY49       0.2014
     74  C         12.0200   18.0900    9.3910 C.2    49  GLY49       0.2638
     75  O         12.1320   17.4230   10.4120 O.2    49  GLY49      -0.2714
     76  N         11.3220   19.2180    9.3380 N.am   50  ILE50      -0.1977
     77  CA        10.6590   19.7800   10.5080 C.3    50  ILE50       0.1596
     78  C          9.6810   18.8270   11.1920 C.2    50  ILE50       0.2287
     79  O          9.5920   18.7980   12.4210 O.2    50  ILE50      -0.2864
     80  CB         9.9040   21.0930   10.1340 C.3    50  ILE50       0.0276
     81  CG1        9.5710   21.8850   11.3980 C.3    50  ILE50       0.0022
     82  CG2        8.6090   20.7790    9.3880 C.3    50  ILE50       0.0022
     83  CD1       10.7780   22.3770   12.1240 C.3    50  ILE50       0.0001
     84  N          6.6020   18.8590   -0.0120 N.3    81  PRO81      -0.2102
     85  CA         5.5350   19.8650   -0.1540 C.3    81  PRO81       0.1504
     86  C          5.6730   20.7220   -1.4140 C.2    81  PRO81       0.2575
     87  O          4.6730   21.0580   -2.0660 O.2    81  PRO81      -0.2718
     88  CB         5.6660   20.6960    1.1230 C.3    81  PRO81       0.0282
     89  CG         6.2630   19.7280    2.1060 C.3    81  PRO81       0.0208
     90  CD         7.3060   19.0190    1.2710 C.3    81  PRO81       0.0893
     91  N          6.9100   21.0800   -1.7530 N.am   82  VAL82      -0.1980
     92  CA         7.1920   21.8850   -2.9490 C.3    82  VAL82       0.1595
     93  C          8.5010   21.4100   -3.5720 C.2    82  VAL82       0.2287
     94  O          9.2710   20.7050   -2.9190 O.2    82  VAL82      -0.2864
     95  CB         7.3770   23.3820   -2.6080 C.3    82  VAL82       0.0276
     96  CG1        6.1100   23.9470   -1.9790 C.3    82  VAL82       0.0022
     97  CG2        8.5630   23.5480   -1.6650 C.3    82  VAL82       0.0022
     98  N         12.1180   21.5900   -4.2510 N.3    84  ILE84      -0.1245
     99  CA        13.1820   22.2550   -3.5130 C.3    84  ILE84       0.1561
    100  C         14.5540   22.1290   -4.1590 C.2    84  ILE84       0.2260
    101  O         14.9960   21.0280   -4.4770 O.2    84  ILE84      -0.2867
    102  CB        13.3090   21.6720   -2.0890 C.3    84  ILE84       0.0252
    103  CG1       12.0210   21.9080   -1.3090 C.3    84  ILE84       0.0019
    104  CG2       14.4940   22.3090   -1.3570 C.3    84  ILE84       0.0019
    105  CD1       12.0520   21.2680    0.0500 C.3    84  ILE84       0.0001
@<TRIPOS>BOND
     1    12    13    1
     2    55    56    2
     3    55    54    1
     4   101   100    2
     5    98    99    1
     6    13    14    1
     7    13    16    1
     8   100    99    1
     9    14    15    2
    10    53    54    1
    11    54    57    1
    12     4     3    2
    13    93    92    1
    14    93    94    2
    15    99   102    1
    16    92    95    1
    17    92    91    1
    18    16    17    1
    19     3     2    1
    20    95    96    1
    21    95    97    1
    22    57    58    1
    23    57    59    1
    24   102   104    1
    25   102   103    1
    26    87    86    2
    27    18    17    1
    28    47    48    2
    29    47    46    1
    30    91    86   am
    31    20    21    1
    32    17    19    1
    33     5     2    1
    34     5     6    1
    35    86    85    1
    36     2     1    1
    37   103   105    1
    38    46    49    1
    39    46    45    1
    40    49    50    1
    41     7     6    1
    42     7     8    1
    43    21    24    1
    44    21    22    1
    45    11     9    1
    46    40    39    2
    47    85    84    1
    48    85    88    1
    49    84    90    1
    50    24    25    1
    51    51    50   ar
    52    50    52   ar
    53    45    39   am
    54    23    22    2
    55    39    38    1
    56     8     9    2
    57     9    10    1
    58    88    89    1
    59    35    34    2
    60    90    89    1
    61    36    33    1
    62    25    27   ar
    63    25    26   ar
    64    67    65    1
    65    34    33    1
    66    34    37   am
    67    66    64    1
    68    38    37    1
    69    38    41    1
    70    33    32    1
    71    32    30   am
    72    41    42    1
    73    65    64    1
    74    64    61    1
    75    28    29    1
    76    60    61    1
    77    30    29    1
    78    30    31    2
    79    42    43   ar
    80    42    44   ar
    81    61    62    1
    82    62    63    2
    83    62    68   am
    84    68    69    1
    85    71    70    2
    86    70    69    1
    87    70    72   am
    88    73    72    1
    89    73    74    1
    90    76    74   am
    91    76    77    1
    92    82    80    1
    93    74    75    2
    94    80    77    1
    95    80    81    1
    96    77    78    1
    97    78    79    2
    98    81    83    1
