@<TRIPOS>MOLECULE
tmp/2a4gA00.pdb
 187 182 0 0 0
SMALL
GASTEIGER

@<TRIPOS>ATOM
      1  N        211.1200   -6.7050   53.3510 N.3    40  THR40      -0.1203
      2  CA       210.3070   -7.2390   52.2740 C.3    40  THR40       0.1994
      3  C        209.1600   -6.3710   51.7600 C.2    40  THR40       0.2618
      4  O        208.8530   -6.4000   50.5700 O.2    40  THR40      -0.2717
      5  CB       209.7680   -8.6240   52.6720 C.3    40  THR40       0.1784
      6  OG1      208.7610   -8.4840   53.6860 O.3    40  THR40      -0.2211
      7  CG2      210.9060   -9.4700   53.2480 C.3    40  THR40       0.0376
      8  N        208.5140   -5.6090   52.6330 N.am   41  GLN41      -0.1965
      9  CA       207.3940   -4.7920   52.1840 C.3    41  GLN41       0.1733
     10  C        207.1370   -3.5260   52.9810 C.2    41  GLN41       0.2617
     11  O        207.5630   -3.3880   54.1270 O.2    41  GLN41      -0.2715
     12  CB       206.1200   -5.6290   52.1610 C.3    41  GLN41       0.0408
     13  CG       205.6990   -6.1100   53.5230 C.3    41  GLN41       0.0908
     14  CD       204.4110   -6.9030   53.4880 C.2    41  GLN41       0.2608
     15  OE1      203.4870   -6.6080   52.7170 O.2    41  GLN41      -0.2717
     16  NE2      204.3310   -7.9110   54.3410 N.am   41  GLN41      -0.0878
     17  N        206.3990   -2.6170   52.3650 N.am   42  THR42      -0.1937
     18  CA       206.0680   -1.3610   52.9860 C.3    42  THR42       0.2028
     19  C        204.5560   -1.2380   53.0540 C.2    42  THR42       0.2642
     20  O        203.8390   -1.5960   52.1190 O.2    42  THR42      -0.2714
     21  CB       206.7120   -0.1900   52.2200 C.3    42  THR42       0.1808
     22  OG1      206.4800    1.0330   52.9170 O.3    42  THR42      -0.2208
     23  CG2      206.1790   -0.0930   50.8100 C.3    42  THR42       0.0379
     24  N        204.0840   -0.7870   54.2040 N.am   43  PHE43      -0.1973
     25  CA       202.6690   -0.6320   54.4680 C.3    43  PHE43       0.1639
     26  C        202.4680    0.5150   55.4560 C.2    43  PHE43       0.2290
     27  O        203.3410    1.3940   55.5790 O.2    43  PHE43      -0.2864
     28  CB       202.0720   -1.9570   54.9900 C.3    43  PHE43       0.0560
     29  CG       202.9630   -2.6910   55.9610 C.ar   43  PHE43      -0.0200
     30  CD1      204.1650   -3.2500   55.5380 C.ar   43  PHE43      -0.0042
     31  CD2      202.6180   -2.7860   57.3020 C.ar   43  PHE43      -0.0042
     32  CE1      205.0140   -3.8780   56.4360 C.ar   43  PHE43      -0.0003
     33  CE2      203.4620   -3.4110   58.2130 C.ar   43  PHE43      -0.0003
     34  CZ       204.6610   -3.9580   57.7790 C.ar   43  PHE43      -0.0000
     35  N        198.7610   -4.4540   60.3230 N.3    55  VAL55      -0.1245
     36  CA       198.3970   -5.8110   59.9280 C.3    55  VAL55       0.1561
     37  C        199.4910   -6.8310   60.2480 C.2    55  VAL55       0.2260
     38  O        200.6780   -6.6120   59.9670 O.2    55  VAL55      -0.2867
     39  CB       198.0620   -5.8860   58.4160 C.3    55  VAL55       0.0252
     40  CG1      196.7080   -5.2710   58.1510 C.3    55  VAL55       0.0019
     41  CG2      199.1140   -5.1580   57.6020 C.3    55  VAL55       0.0019
     42  N        199.8500   -9.5730   58.8180 N.3    57  HIS57      -0.1226
     43  CA       200.3850  -10.0630   57.5530 C.3    57  HIS57       0.1752
     44  C        201.4620   -9.1580   56.9930 C.2    57  HIS57       0.2596
     45  O        202.0280   -9.4370   55.9400 O.2    57  HIS57      -0.2718
     46  CB       199.2920  -10.3240   56.4970 C.3    57  HIS57       0.0759
     47  CG       198.5320   -9.1050   56.0500 C.ar   57  HIS57       0.0818
     48  ND1      197.2560   -8.8290   56.4960 N.ar   57  HIS57      -0.2268
     49  CD2      198.8160   -8.1580   55.1220 C.ar   57  HIS57       0.1154
     50  CE1      196.7830   -7.7690   55.8630 C.ar   57  HIS57       0.1986
     51  NE2      197.7090   -7.3440   55.0210 N.ar   57  HIS57      -0.2212
     52  N        201.7240   -8.0610   57.6910 N.am   58  GLY58      -0.1957
     53  CA       202.7380   -7.1410   57.2450 C.3    58  GLY58       0.1869
     54  C        203.8620   -7.1070   58.2450 C.2    58  GLY58       0.2309
     55  O        205.0250   -7.2860   57.8840 O.2    58  GLY58      -0.2863
     56  N        198.5240    5.3950   51.5480 N.3   109  ARG109     -0.1231
     57  CA       199.9060    5.7490   51.8580 C.3   109  ARG109      0.1694
     58  C        200.3350    6.9770   51.1020 C.2   109  ARG109      0.2592
     59  O        201.4080    7.5190   51.3480 O.2   109  ARG109     -0.2718
     60  CB       200.8680    4.6120   51.5280 C.3   109  ARG109      0.0321
     61  CG       200.9020    4.2090   50.0670 C.3   109  ARG109      0.0489
     62  CD       202.2240    3.5480   49.7340 C.3   109  ARG109      0.2205
     63  NE       202.6650    2.7210   50.8470 N.pl3 109  ARG109     -0.0865
     64  CZ       203.8770    2.7720   51.3840 C.cat 109  ARG109      0.5346
     65  NH1      204.7910    3.6030   50.8940 N.pl3 109  ARG109      0.1354
     66  NH2      204.1330    2.0780   52.4860 N.pl3 109  ARG109      0.1354
     67  N        199.5110    7.3930   50.1510 N.am  110  HIS110     -0.1976
     68  CA       199.8100    8.5670   49.3530 C.3   110  HIS110      0.1656
     69  C        199.1030    9.7790   49.9350 C.2   110  HIS110      0.2291
     70  O        199.1270   10.8580   49.3500 O.2   110  HIS110     -0.2864
     71  CB       199.3420    8.3320   47.9250 C.3   110  HIS110      0.0771
     72  CG       199.7430    7.0010   47.3850 C.ar  110  HIS110      0.0820
     73  ND1      201.0520    6.6780   47.1010 N.ar  110  HIS110     -0.2267
     74  CD2      199.0100    5.8990   47.0930 C.ar  110  HIS110      0.1154
     75  CE1      201.1090    5.4350   46.6530 C.ar  110  HIS110      0.1986
     76  NE2      199.8840    4.9400   46.6400 N.ar  110  HIS110     -0.2212
     77  N        183.3810   -4.6090   55.7670 N.3   123  ARG123     -0.1245
     78  CA       183.5460   -4.3250   54.3520 C.3   123  ARG123      0.1563
     79  C        182.8710   -3.0500   53.8910 C.2   123  ARG123      0.2260
     80  O        181.9400   -2.5630   54.5200 O.2   123  ARG123     -0.2867
     81  CB       183.0770   -5.5140   53.5250 C.3   123  ARG123      0.0307
     82  CG       183.4110   -5.3920   52.0630 C.3   123  ARG123      0.0489
     83  CD       183.4240   -6.7390   51.3900 C.3   123  ARG123      0.2205
     84  NE       184.4050   -7.6350   51.9980 N.pl3 123  ARG123     -0.0865
     85  CZ       184.8320   -8.7590   51.4330 C.cat 123  ARG123      0.5346
     86  NH1      184.3760   -9.1310   50.2370 N.pl3 123  ARG123      0.1354
     87  NH2      185.6880   -9.5330   52.0820 N.pl3 123  ARG123      0.1354
     88  N        194.2770   -1.8560   41.5910 N.3   132  ILE132     -0.1231
     89  CA       194.7370   -2.5220   42.7950 C.3   132  ILE132      0.1692
     90  C        196.0990   -1.9810   43.2340 C.2   132  ILE132      0.2592
     91  O        196.4360   -1.9960   44.4170 O.2   132  ILE132     -0.2718
     92  CB       194.8260   -4.0390   42.5890 C.3   132  ILE132      0.0266
     93  CG1      194.9090   -4.7170   43.9400 C.3   132  ILE132      0.0019
     94  CG2      196.0500   -4.4110   41.7720 C.3   132  ILE132      0.0020
     95  CD1      193.6970   -4.4660   44.7740 C.3   132  ILE132      0.0001
     96  N        196.8590   -1.4690   42.2750 N.am  133  SER133     -0.1952
     97  CA       198.1860   -0.9230   42.5340 C.3   133  SER133      0.1924
     98  C        198.1270    0.3340   43.3900 C.2   133  SER133      0.2314
     99  O        199.0470    0.6260   44.1580 O.2   133  SER133     -0.2863
    100  CB       198.8860   -0.6030   41.2110 C.3   133  SER133      0.2116
    101  OG       198.1510    0.3550   40.4570 O.3   133  SER133     -0.2180
    102  N        196.1030    0.9040   45.7890 N.3   135  LEU135     -0.1231
    103  CA       195.8910    0.4720   47.1580 C.3   135  LEU135      0.1693
    104  C        197.0700   -0.2960   47.7830 C.2   135  LEU135      0.2592
    105  O        197.1250   -0.4770   49.0010 O.2   135  LEU135     -0.2718
    106  CB       194.6090   -0.3510   47.2170 C.3   135  LEU135      0.0284
    107  CG       193.3350    0.3640   47.6730 C.3   135  LEU135      0.0019
    108  CD1      193.4060    1.8650   47.4470 C.3   135  LEU135      0.0001
    109  CD2      192.1400   -0.2570   46.9780 C.3   135  LEU135      0.0001
    110  N        198.0160   -0.7400   46.9650 N.am  136  LYS136     -0.1966
    111  CA       199.1780   -1.4600   47.4790 C.3   136  LYS136      0.1728
    112  C        199.9500   -0.5510   48.4330 C.2   136  LYS136      0.2617
    113  O        200.1450    0.6390   48.1570 O.2   136  LYS136     -0.2715
    114  CB       200.0980   -1.8960   46.3330 C.3   136  LYS136      0.0311
    115  CG       199.4430   -2.8030   45.2990 C.3   136  LYS136      0.0038
    116  CD       199.3140   -4.2330   45.7910 C.3   136  LYS136      0.0206
    117  CE       200.3720   -5.1540   45.1650 C.3   136  LYS136      0.1093
    118  NZ       200.0880   -5.4840   43.7300 N.3   136  LYS136     -0.1314
    119  N        200.3730   -1.1140   49.5600 N.am  137  GLY137     -0.1940
    120  CA       201.1170   -0.3430   50.5380 C.3   137  GLY137      0.2014
    121  C        200.2600    0.3780   51.5550 C.2   137  GLY137      0.2640
    122  O        200.7880    0.9810   52.4720 O.2   137  GLY137     -0.2714
    123  N        198.9410    0.2880   51.4340 N.am  138  SER138     -0.1935
    124  CA       198.0520    0.9590   52.3810 C.3   138  SER138      0.2055
    125  C        197.4390    0.0820   53.4790 C.2   138  SER138      0.2643
    126  O        196.6140    0.5580   54.2590 O.2   138  SER138     -0.2714
    127  CB       196.9570    1.7180   51.6370 C.3   138  SER138      0.2130
    128  OG       197.5210    2.7780   50.8870 O.3   138  SER138     -0.2179
    129  N        197.8540   -1.1830   53.5680 N.am  139  SER139     -0.1949
    130  CA       197.3350   -2.0850   54.6010 C.3   139  SER139      0.1924
    131  C        197.7760   -1.5640   55.9640 C.2   139  SER139      0.2314
    132  O        198.9470   -1.2480   56.1540 O.2   139  SER139     -0.2863
    133  CB       197.8750   -3.5000   54.3900 C.3   139  SER139      0.2116
    134  OG       197.4140   -3.9570   53.1480 O.3   139  SER139     -0.2180
    135  N        192.6050   -0.7700   57.0270 N.3   154  PHE154     -0.1227
    136  CA       192.5700   -1.4410   55.7240 C.3   154  PHE154      0.1736
    137  C        193.3290   -2.7700   55.7830 C.2   154  PHE154      0.2595
    138  O        194.4870   -2.8190   56.2050 O.2   154  PHE154     -0.2718
    139  CB       193.1630   -0.5280   54.6480 C.3   154  PHE154      0.0547
    140  CG       193.1650   -1.1200   53.2660 C.ar  154  PHE154     -0.0202
    141  CD1      192.0270   -1.7030   52.7340 C.ar  154  PHE154     -0.0042
    142  CD2      194.3150   -1.0730   52.4870 C.ar  154  PHE154     -0.0042
    143  CE1      192.0380   -2.2180   51.4460 C.ar  154  PHE154     -0.0003
    144  CE2      194.3320   -1.5870   51.2000 C.ar  154  PHE154     -0.0003
    145  CZ       193.1960   -2.1600   50.6800 C.ar  154  PHE154     -0.0000
    146  N        192.6800   -3.8360   55.3220 N.am  155  ARG155     -0.1966
    147  CA       193.2840   -5.1550   55.3400 C.3   155  ARG155      0.1729
    148  C        193.4650   -5.7880   53.9680 C.2   155  ARG155      0.2616
    149  O        194.5730   -6.1770   53.5900 O.2   155  ARG155     -0.2715
    150  CB       192.4440   -6.0940   56.1970 C.3   155  ARG155      0.0348
    151  CG       193.1890   -7.3240   56.6480 C.3   155  ARG155      0.0492
    152  CD       192.2540   -8.2920   57.3010 C.3   155  ARG155      0.2205
    153  NE       191.7680   -9.2610   56.3330 N.pl3 155  ARG155     -0.0865
    154  CZ       192.3700  -10.4180   56.0730 C.cat 155  ARG155      0.5346
    155  NH1      193.4840  -10.7580   56.7150 N.pl3 155  ARG155      0.1354
    156  NH2      191.8670  -11.2310   55.1490 N.pl3 155  ARG155      0.1354
    157  N        192.3690   -5.9050   53.2310 N.am  156  ALA156     -0.1963
    158  CA       192.4170   -6.5400   51.9300 C.3   156  ALA156      0.1728
    159  C        191.5420   -5.8250   50.9170 C.2   156  ALA156      0.2616
    160  O        190.5840   -5.1380   51.2780 O.2   156  ALA156     -0.2715
    161  CB       191.9940   -7.9970   52.0520 C.3   156  ALA156      0.0334
    162  N        191.8690   -5.9970   49.6430 N.am  157  ALA157     -0.1963
    163  CA       191.1070   -5.3690   48.5880 C.3   157  ALA157      0.1728
    164  C        190.4080   -6.4030   47.7480 C.2   157  ALA157      0.2616
    165  O        190.9820   -7.4430   47.4180 O.2   157  ALA157     -0.2715
    166  CB       192.0110   -4.5400   47.7240 C.3   157  ALA157      0.0334
    167  N        189.1480   -6.1240   47.4410 N.am  158  VAL158     -0.1963
    168  CA       188.3360   -6.9920   46.6030 C.3   158  VAL158      0.1727
    169  C        188.6450   -6.5390   45.1730 C.2   158  VAL158      0.2616
    170  O        188.0320   -5.6070   44.6380 O.2   158  VAL158     -0.2715
    171  CB       186.8340   -6.8400   46.9270 C.3   158  VAL158      0.0290
    172  CG1      186.0090   -7.7330   46.0250 C.3   158  VAL158      0.0023
    173  CG2      186.5750   -7.1930   48.3860 C.3   158  VAL158      0.0023
    174  N        189.6650   -7.1660   44.6040 N.am  159  CYS159     -0.1968
    175  CA       190.1470   -6.8580   43.2700 C.3   159  CYS159      0.1712
    176  C        189.5530   -7.7550   42.1850 C.2   159  CYS159      0.2296
    177  O        189.1470   -8.8860   42.4540 O.2   159  CYS159     -0.2864
    178  CB       191.6720   -6.9820   43.2720 C.3   159  CYS159      0.0983
    179  SG       192.4730   -6.8200   41.6770 S.3   159  CYS159     -0.0798
    180  N        188.2290   -4.7270   52.3980 N.3   168  ASP168     -0.1239
    181  CA       187.9580   -5.4890   53.5910 C.3   168  ASP168      0.1674
    182  C        188.8040   -4.8620   54.6950 C.2   168  ASP168      0.2266
    183  O        190.0090   -4.6280   54.5140 O.2   168  ASP168     -0.2867
    184  CB       188.3680   -6.9410   53.3460 C.3   168  ASP168      0.1410
    185  CG       188.1260   -7.8280   54.5420 C.2   168  ASP168      0.3668
    186  OD1      186.9640   -8.2530   54.7280 O.co2 168  ASP168     -0.2456
    187  OD2      189.0960   -8.1060   55.2870 O.co2 168  ASP168     -0.2456
@<TRIPOS>BOND
     1   101   100    1
     2   100    97    1
     3    88    89    1
     4   179   178    1
     5    94    92    1
     6   176   177    2
     7   176   175    1
     8    96    97    1
     9    96    90   am
    10    97    98    1
    11    92    89    1
    12    92    93    1
    13    89    90    1
    14    90    91    2
    15   175   178    1
    16   175   174    1
    17    98    99    2
    18   118   117    1
    19    93    95    1
    20   174   169   am
    21   170   169    2
    22   117   116    1
    23   169   168    1
    24   115   116    1
    25   115   114    1
    26   102   103    1
    27   172   171    1
    28   114   111    1
    29   168   171    1
    30   168   167    1
    31    76    75   ar
    32    76    74   ar
    33    75    73   ar
    34   171   173    1
    35   110   111    1
    36   110   104   am
    37   109   107    1
    38    74    72   ar
    39    73    72   ar
    40   103   106    1
    41   103   104    1
    42   106   107    1
    43    72    71    1
    44   165   164    2
    45   167   164   am
    46   108   107    1
    47   111   112    1
    48   166   163    1
    49   164   163    1
    50   104   105    2
    51    71    68    1
    52   113   112    2
    53   112   119   am
    54   163   162    1
    55    70    69    2
    56    68    69    1
    57    68    67    1
    58   119   120    1
    59   162   159   am
    60    62    61    1
    61    62    63    1
    62    61    60    1
    63    67    58   am
    64    86    85    1
    65   120   121    1
    66     4     3    2
    67   145   144   ar
    68   145   143   ar
    69    23    21    1
    70    63    64    2
    71   128   127    1
    72    65    64    1
    73   159   160    2
    74   159   158    1
    75    58    59    2
    76    58    57    1
    77   144   142   ar
    78    64    66    1
    79    83    84    1
    80    83    82    1
    81    85    84    2
    82    85    87    1
    83   123   121   am
    84   123   124    1
    85   143   141   ar
    86    60    57    1
    87    56    57    1
    88   121   122    2
    89   127   124    1
    90     3     2    1
    91     3     8   am
    92   158   161    1
    93   158   157    1
    94    82    81    1
    95    20    19    2
    96    12     9    1
    97    12    13    1
    98     9     8    1
    99     9    10    1
   100    21    22    1
   101    21    18    1
   102     2     5    1
   103     2     1    1
   104    17    10   am
   105    17    18    1
   106   124   125    1
   107   180   181    1
   108   142   140   ar
   109     5     7    1
   110     5     6    1
   111    15    14    2
   112   141   140   ar
   113    10    11    2
   114    18    19    1
   115    19    24   am
   116   134   133    1
   117   157   148   am
   118   140   139    1
   119   184   181    1
   120   184   185    1
   121   125   129   am
   122   125   126    2
   123    14    13    1
   124    14    16   am
   125    81    78    1
   126   129   130    1
   127   149   148    2
   128   181   182    1
   129    79    78    1
   130    79    80    2
   131   148   147    1
   132    24    25    1
   133    78    77    1
   134   133   130    1
   135    25    28    1
   136    25    26    1
   137   183   182    2
   138   185   186   ar
   139   185   187   ar
   140   130   131    1
   141   139   136    1
   142    28    29    1
   143    51    49   ar
   144    51    50   ar
   145    49    47   ar
   146   156   154    1
   147   146   147    1
   148   146   137   am
   149   147   150    1
   150    26    27    2
   151    30    29   ar
   152    30    32   ar
   153   136   137    1
   154   136   135    1
   155   137   138    2
   156    50    48   ar
   157    45    44    2
   158    29    31   ar
   159   131   132    2
   160    47    48   ar
   161    47    46    1
   162   154   153    2
   163   154   155    1
   164   150   151    1
   165   153   152    1
   166    32    34   ar
   167    46    43    1
   168   151   152    1
   169    44    43    1
   170    44    52   am
   171    53    52    1
   172    53    54    1
   173    31    33   ar
   174    43    42    1
   175    41    39    1
   176    34    33   ar
   177    55    54    2
   178    40    39    1
   179    39    36    1
   180    36    37    1
   181    36    35    1
   182    38    37    2
