@<TRIPOS>MOLECULE
tmp/2a4qA00.pdb
 191 185 0 0 0
SMALL
GASTEIGER

@<TRIPOS>ATOM
      1  N        211.5740   -6.5090   53.2180 N.3    40  THR40      -0.1203
      2  CA       210.7600   -7.2000   52.2310 C.3    40  THR40       0.1994
      3  C        209.5570   -6.4210   51.6770 C.2    40  THR40       0.2618
      4  O        209.2300   -6.5460   50.4940 O.2    40  THR40      -0.2717
      5  CB       210.2830   -8.5700   52.7900 C.3    40  THR40       0.1784
      6  OG1      209.3800   -8.3660   53.8860 O.3    40  THR40      -0.2211
      7  CG2      211.4800   -9.3830   53.2990 C.3    40  THR40       0.0376
      8  N        208.9050   -5.6170   52.5120 N.am   41  GLN41      -0.1965
      9  CA       207.7370   -4.8770   52.0520 C.3    41  GLN41       0.1733
     10  C        207.4640   -3.6190   52.8480 C.2    41  GLN41       0.2617
     11  O        207.8910   -3.4920   53.9980 O.2    41  GLN41      -0.2715
     12  CB       206.5020   -5.7660   52.1220 C.3    41  GLN41       0.0408
     13  CG       206.0940   -6.0900   53.5310 C.3    41  GLN41       0.0908
     14  CD       204.8820   -6.9740   53.5840 C.2    41  GLN41       0.2608
     15  OE1      203.7980   -6.6000   53.1240 O.2    41  GLN41      -0.2717
     16  NE2      205.0470   -8.1580   54.1520 N.am   41  GLN41      -0.0878
     17  N        206.7220   -2.7000   52.2410 N.am   42  THR42      -0.1937
     18  CA       206.3850   -1.4510   52.9020 C.3    42  THR42       0.2028
     19  C        204.8800   -1.3010   53.0180 C.2    42  THR42       0.2642
     20  O        204.1330   -1.5980   52.0840 O.2    42  THR42      -0.2714
     21  CB       207.0080   -0.2420   52.1910 C.3    42  THR42       0.1808
     22  OG1      206.7530    0.9440   52.9520 O.3    42  THR42      -0.2208
     23  CG2      206.4310   -0.0870   50.8130 C.3    42  THR42       0.0379
     24  N        204.4460   -0.8620   54.1890 N.am   43  PHE43      -0.1973
     25  CA       203.0350   -0.7000   54.4980 C.3    43  PHE43       0.1639
     26  C        202.8180    0.5030   55.4370 C.2    43  PHE43       0.2290
     27  O        203.6830    1.3850   55.5260 O.2    43  PHE43      -0.2864
     28  CB       202.4750   -2.0190   55.0880 C.3    43  PHE43       0.0560
     29  CG       203.4000   -2.7020   56.0610 C.ar   43  PHE43      -0.0200
     30  CD1      204.6310   -3.2080   55.6420 C.ar   43  PHE43      -0.0042
     31  CD2      203.0820   -2.7640   57.4110 C.ar   43  PHE43      -0.0042
     32  CE1      205.5340   -3.7540   56.5600 C.ar   43  PHE43      -0.0003
     33  CE2      203.9750   -3.3090   58.3330 C.ar   43  PHE43      -0.0003
     34  CZ       205.2060   -3.8020   57.9070 C.ar   43  PHE43      -0.0000
     35  N        199.2930   -4.1490   60.3070 N.3    55  VAL55      -0.1245
     36  CA       198.8750   -5.4010   59.7410 C.3    55  VAL55       0.1561
     37  C        199.9280   -6.5180   59.9300 C.2    55  VAL55       0.2260
     38  O        201.1060   -6.3560   59.6080 O.2    55  VAL55      -0.2867
     39  CB       198.4740   -5.1160   58.2850 C.3    55  VAL55       0.0252
     40  CG1      199.6250   -5.3270   57.3350 C.3    55  VAL55       0.0019
     41  CG2      197.1980   -5.8150   57.9290 C.3    55  VAL55       0.0019
     42  N        200.3290   -9.2580   58.4110 N.3    57  HIS57      -0.1241
     43  CA       200.9200   -9.7580   57.1700 C.3    57  HIS57       0.1621
     44  C        202.0100   -8.8380   56.6490 C.2    57  HIS57       0.2264
     45  O        202.5250   -9.0300   55.5570 O.2    57  HIS57      -0.2867
     46  CB       199.8710  -10.0320   56.0830 C.3    57  HIS57       0.0745
     47  CG       199.1570   -8.8180   55.5860 C.ar   57  HIS57       0.0817
     48  ND1      197.8280   -8.5740   55.8720 N.ar   57  HIS57      -0.2268
     49  CD2      199.5530   -7.8160   54.7640 C.ar   57  HIS57       0.1154
     50  CE1      197.4320   -7.4790   55.2470 C.ar   57  HIS57       0.1986
     51  NE2      198.4600   -7.0010   54.5680 N.ar   57  HIS57      -0.2212
     52  N        194.8320  -10.4810   62.2700 N.3    81  ASP81      -0.1239
     53  CA       195.8400   -9.9770   61.3540 C.3    81  ASP81       0.1674
     54  C        196.3430   -8.6350   61.9030 C.2    81  ASP81       0.2266
     55  O        196.5830   -7.6960   61.1520 O.2    81  ASP81      -0.2867
     56  CB       195.2380   -9.8220   59.9530 C.3    81  ASP81       0.1410
     57  CG       196.2780   -9.5370   58.8950 C.2    81  ASP81       0.3668
     58  OD1      197.4520   -9.9170   59.0870 O.co2  81  ASP81      -0.2456
     59  OD2      195.9160   -8.9350   57.8650 O.co2  81  ASP81      -0.2456
     60  N        198.8650    5.4260   51.5500 N.3   109  ARG109     -0.1231
     61  CA       200.2530    5.7720   51.8570 C.3   109  ARG109      0.1694
     62  C        200.6940    7.0070   51.0800 C.2   109  ARG109      0.2592
     63  O        201.7390    7.5860   51.3750 O.2   109  ARG109     -0.2718
     64  CB       201.2100    4.6060   51.5760 C.3   109  ARG109      0.0321
     65  CG       201.4370    4.3150   50.1070 C.3   109  ARG109      0.0489
     66  CD       202.3720    3.1390   49.8990 C.3   109  ARG109      0.2205
     67  NE       203.7280    3.4220   50.3450 N.pl3 109  ARG109     -0.0865
     68  CZ       204.2720    2.9180   51.4500 C.cat 109  ARG109      0.5346
     69  NH1      203.5750    2.1040   52.2330 N.pl3 109  ARG109      0.1354
     70  NH2      205.5230    3.2150   51.7660 N.pl3 109  ARG109      0.1354
     71  N        199.9120    7.3940   50.0710 N.am  110  HIS110     -0.1976
     72  CA       200.2200    8.5840   49.2820 C.3   110  HIS110      0.1656
     73  C        199.5300    9.8030   49.8920 C.2   110  HIS110      0.2291
     74  O        199.5220   10.8670   49.2890 O.2   110  HIS110     -0.2864
     75  CB       199.7630    8.4150   47.8350 C.3   110  HIS110      0.0771
     76  CG       200.3600    7.2270   47.1560 C.ar  110  HIS110      0.0820
     77  ND1      201.7200    7.0130   47.0880 N.ar  110  HIS110     -0.2267
     78  CD2      199.7800    6.1650   46.5440 C.ar  110  HIS110      0.1154
     79  CE1      201.9520    5.8700   46.4660 C.ar  110  HIS110      0.1986
     80  NE2      200.7930    5.3370   46.1260 N.ar  110  HIS110     -0.2212
     81  N        183.8040   -4.7750   55.7720 N.3   123  ARG123     -0.1245
     82  CA       183.8830   -4.5460   54.3380 C.3   123  ARG123      0.1563
     83  C        183.2710   -3.2030   54.0010 C.2   123  ARG123      0.2260
     84  O        182.4450   -2.6790   54.7450 O.2   123  ARG123     -0.2867
     85  CB       183.1540   -5.6730   53.5970 C.3   123  ARG123      0.0307
     86  CG       183.0110   -5.5020   52.0810 C.3   123  ARG123      0.0489
     87  CD       184.3040   -5.7710   51.3190 C.3   123  ARG123      0.2205
     88  NE       184.7090   -7.1780   51.3350 N.pl3 123  ARG123     -0.0865
     89  CZ       184.3930   -8.0700   50.3960 C.cat 123  ARG123      0.5346
     90  NH1      183.6510   -7.7110   49.3530 N.pl3 123  ARG123      0.1354
     91  NH2      184.8660   -9.3120   50.4670 N.pl3 123  ARG123      0.1354
     92  N        194.3650   -1.7880   42.1590 N.3   132  ILE132     -0.1231
     93  CA       195.0290   -2.2420   43.3880 C.3   132  ILE132      0.1692
     94  C        196.4550   -1.7560   43.5620 C.2   132  ILE132      0.2592
     95  O        196.9690   -1.7480   44.6790 O.2   132  ILE132     -0.2718
     96  CB       195.0030   -3.7850   43.5780 C.3   132  ILE132      0.0266
     97  CG1      195.2980   -4.5200   42.2720 C.3   132  ILE132      0.0019
     98  CG2      193.6960   -4.2110   44.1670 C.3   132  ILE132      0.0020
     99  CD1      196.7660   -4.5660   41.8870 C.3   132  ILE132      0.0001
    100  N        197.0910   -1.3710   42.4590 N.am  133  SER133     -0.1952
    101  CA       198.4620   -0.8660   42.4870 C.3   133  SER133      0.1924
    102  C        198.5200    0.4100   43.3270 C.2   133  SER133      0.2314
    103  O        199.4890    0.6490   44.0640 O.2   133  SER133     -0.2863
    104  CB       198.9590   -0.5880   41.0630 C.3   133  SER133      0.2116
    105  OG       198.0770    0.2770   40.3630 O.3   133  SER133     -0.2180
    106  N        196.5670    1.0290   45.7850 N.3   135  LEU135     -0.1231
    107  CA       196.3700    0.6350   47.1760 C.3   135  LEU135      0.1693
    108  C        197.5820   -0.1220   47.7520 C.2   135  LEU135      0.2592
    109  O        197.6930   -0.2890   48.9690 O.2   135  LEU135     -0.2718
    110  CB       195.0950   -0.2120   47.3370 C.3   135  LEU135      0.0284
    111  CG       193.6910    0.4020   47.2850 C.3   135  LEU135      0.0019
    112  CD1      193.5980    1.5650   48.2450 C.3   135  LEU135      0.0001
    113  CD2      193.3520    0.8420   45.8830 C.3   135  LEU135      0.0001
    114  N        198.4810   -0.5970   46.8910 N.am  136  LYS136     -0.1966
    115  CA       199.6720   -1.3150   47.3480 C.3   136  LYS136      0.1728
    116  C        200.4180   -0.4520   48.3560 C.2   136  LYS136      0.2617
    117  O        200.6410    0.7400   48.1270 O.2   136  LYS136     -0.2715
    118  CB       200.6100   -1.6130   46.1790 C.3   136  LYS136      0.0311
    119  CG       200.0760   -2.5760   45.1370 C.3   136  LYS136      0.0038
    120  CD       199.9800   -4.0050   45.6610 C.3   136  LYS136      0.0206
    121  CE       199.7570   -5.0030   44.5160 C.3   136  LYS136      0.1093
    122  NZ       200.8630   -4.9960   43.5040 N.3   136  LYS136     -0.1314
    123  N        200.8210   -1.0600   49.4610 N.am  137  GLY137     -0.1940
    124  CA       201.5320   -0.3220   50.4860 C.3   137  GLY137      0.2014
    125  C        200.6590    0.3440   51.5320 C.2   137  GLY137      0.2640
    126  O        201.1800    0.8560   52.5040 O.2   137  GLY137     -0.2714
    127  N        199.3390    0.2970   51.3830 N.am  138  SER138     -0.1935
    128  CA       198.4490    0.9360   52.3550 C.3   138  SER138      0.2055
    129  C        197.8500    0.0890   53.4830 C.2   138  SER138      0.2643
    130  O        197.1090    0.6110   54.3110 O.2   138  SER138     -0.2714
    131  CB       197.3350    1.6780   51.6290 C.3   138  SER138      0.2130
    132  OG       197.8700    2.7240   50.8380 O.3   138  SER138     -0.2179
    133  N        198.1580   -1.2040   53.5240 N.am  139  SER139     -0.1949
    134  CA       197.6300   -2.0840   54.5750 C.3   139  SER139      0.1924
    135  C        198.0620   -1.5330   55.9280 C.2   139  SER139      0.2314
    136  O        199.2370   -1.2480   56.1290 O.2   139  SER139     -0.2863
    137  CB       198.1650   -3.5100   54.4090 C.3   139  SER139      0.2116
    138  OG       197.7680   -4.0970   53.1740 O.3   139  SER139     -0.2180
    139  N        192.8390   -0.5910   57.0500 N.3   154  PHE154     -0.1227
    140  CA       192.8310   -1.2590   55.7470 C.3   154  PHE154      0.1736
    141  C        193.6070   -2.5770   55.8620 C.2   154  PHE154      0.2595
    142  O        194.6430   -2.6360   56.5160 O.2   154  PHE154     -0.2718
    143  CB       193.4780   -0.3370   54.7130 C.3   154  PHE154      0.0547
    144  CG       193.5550   -0.9160   53.3300 C.ar  154  PHE154     -0.0202
    145  CD1      192.4380   -1.4520   52.7170 C.ar  154  PHE154     -0.0042
    146  CD2      194.7480   -0.8930   52.6220 C.ar  154  PHE154     -0.0042
    147  CE1      192.5180   -1.9530   51.4160 C.ar  154  PHE154     -0.0003
    148  CE2      194.8300   -1.3940   51.3260 C.ar  154  PHE154     -0.0003
    149  CZ       193.7210   -1.9200   50.7250 C.ar  154  PHE154     -0.0000
    150  N        193.1120   -3.6310   55.2220 N.am  155  ARG155     -0.1966
    151  CA       193.7660   -4.9300   55.3090 C.3   155  ARG155      0.1729
    152  C        194.0100   -5.6020   53.9700 C.2   155  ARG155      0.2616
    153  O        195.0860   -6.1680   53.7330 O.2   155  ARG155     -0.2715
    154  CB       192.9230   -5.8450   56.1910 C.3   155  ARG155      0.0348
    155  CG       193.4240   -7.2540   56.3250 C.3   155  ARG155      0.0492
    156  CD       192.5000   -8.0020   57.2360 C.3   155  ARG155      0.2205
    157  NE       192.8730   -9.4030   57.3580 N.pl3 155  ARG155     -0.0865
    158  CZ       192.1400  -10.3140   57.9920 C.cat 155  ARG155      0.5346
    159  NH1      190.9870   -9.9690   58.5610 N.pl3 155  ARG155      0.1354
    160  NH2      192.5680  -11.5710   58.0760 N.pl3 155  ARG155      0.1354
    161  N        193.0060   -5.5620   53.1100 N.am  156  ALA156     -0.1963
    162  CA       193.1240   -6.1880   51.8170 C.3   156  ALA156      0.1728
    163  C        192.1840   -5.5630   50.8320 C.2   156  ALA156      0.2616
    164  O        191.0990   -5.1170   51.1930 O.2   156  ALA156     -0.2715
    165  CB       192.8120   -7.6400   51.9290 C.3   156  ALA156      0.0334
    166  N        192.5870   -5.5800   49.5740 N.am  157  ALA157     -0.1963
    167  CA       191.7780   -5.0210   48.5170 C.3   157  ALA157      0.1728
    168  C        190.9200   -6.1050   47.8750 C.2   157  ALA157      0.2616
    169  O        191.3680   -7.2430   47.6990 O.2   157  ALA157     -0.2715
    170  CB       192.6730   -4.3780   47.4810 C.3   157  ALA157      0.0334
    171  N        189.6670   -5.7600   47.5930 N.am  158  VAL158     -0.1963
    172  CA       188.7340   -6.6690   46.9380 C.3   158  VAL158      0.1727
    173  C        188.7120   -6.1710   45.5090 C.2   158  VAL158      0.2616
    174  O        188.0910   -5.1500   45.2070 O.2   158  VAL158     -0.2715
    175  CB       187.3160   -6.5650   47.5090 C.3   158  VAL158      0.0290
    176  CG1      186.3960   -7.5130   46.7660 C.3   158  VAL158      0.0023
    177  CG2      187.3210   -6.8810   48.9910 C.3   158  VAL158      0.0023
    178  N        189.4020   -6.8880   44.6360 N.am  159  CYS159     -0.1968
    179  CA       189.5130   -6.4820   43.2470 C.3   159  CYS159      0.1712
    180  C        189.2980   -7.5980   42.2450 C.2   159  CYS159      0.2296
    181  O        189.2970   -8.7800   42.5940 O.2   159  CYS159     -0.2864
    182  CB       190.9060   -5.8860   43.0280 C.3   159  CYS159      0.0983
    183  SG       192.2500   -6.9200   43.6840 S.3   159  CYS159     -0.0798
    184  N        188.6150   -4.7730   52.3680 N.3   168  ASP168     -0.1239
    185  CA       188.3850   -5.4740   53.6220 C.3   168  ASP168      0.1674
    186  C        189.2220   -4.7820   54.6800 C.2   168  ASP168      0.2266
    187  O        190.4160   -4.5260   54.4650 O.2   168  ASP168     -0.2867
    188  CB       188.8060   -6.9310   53.5290 C.3   168  ASP168      0.1410
    189  CG       187.7430   -7.7850   52.9160 C.2   168  ASP168      0.3668
    190  OD1      186.6570   -7.9110   53.5250 O.co2 168  ASP168     -0.2456
    191  OD2      187.9850   -8.3180   51.8180 O.co2 168  ASP168     -0.2456
@<TRIPOS>BOND
     1   105   104    1
     2   104   101    1
     3    99    97    1
     4    92    93    1
     5   180   181    2
     6   180   179    1
     7    97    96    1
     8   100   101    1
     9   100    94   am
    10   101   102    1
    11   182   179    1
    12   182   183    1
    13   179   178    1
    14   102   103    2
    15    93    94    1
    16    93    96    1
    17   122   121    1
    18    94    95    2
    19    96    98    1
    20   121   120    1
    21   178   173   am
    22   119   120    1
    23   119   118    1
    24   174   173    2
    25   173   172    1
    26   106   107    1
    27   113   111    1
    28    80    79   ar
    29    80    78   ar
    30   118   115    1
    31    79    77   ar
    32    78    76   ar
    33   176   175    1
    34   114   115    1
    35   114   108   am
    36   172   175    1
    37   172   171    1
    38    77    76   ar
    39    76    75    1
    40   107   110    1
    41   107   108    1
    42   111   110    1
    43   111   112    1
    44   115   116    1
    45   170   167    1
    46   175   177    1
    47   171   168   am
    48   169   168    2
    49   108   109    2
    50    75    72    1
    51   168   167    1
    52   117   116    2
    53   116   123   am
    54   167   166    1
    55    72    73    1
    56    72    71    1
    57    74    73    2
    58    90    89    1
    59   123   124    1
    60   166   163   am
    61    66    65    1
    62    66    67    1
    63    71    62   am
    64    65    64    1
    65    67    68    2
    66    89    91    1
    67    89    88    2
    68   124   125    1
    69     4     3    2
    70   149   148   ar
    71   149   147   ar
    72    23    21    1
    73   163   164    2
    74   163   162    1
    75   132   131    1
    76    62    63    2
    77    62    61    1
    78    87    88    1
    79    87    86    1
    80   148   146   ar
    81   127   125   am
    82   127   128    1
    83   147   145   ar
    84    68    70    1
    85    68    69    1
    86   125   126    2
    87    60    61    1
    88    64    61    1
    89   131   128    1
    90     3     2    1
    91     3     8   am
    92   162   165    1
    93   162   161    1
    94   191   189   ar
    95     9    12    1
    96     9     8    1
    97     9    10    1
    98    86    85    1
    99    20    19    2
   100    12    13    1
   101    21    18    1
   102    21    22    1
   103     2     5    1
   104     2     1    1
   105    17    10   am
   106    17    18    1
   107   128   129    1
   108   184   185    1
   109   146   144   ar
   110   145   144   ar
   111     5     7    1
   112     5     6    1
   113    10    11    2
   114    18    19    1
   115   189   190   ar
   116   189   188    1
   117    19    24   am
   118   161   152   am
   119    15    14    2
   120   138   137    1
   121   144   143    1
   122   129   133   am
   123   129   130    2
   124   133   134    1
   125   188   185    1
   126    13    14    1
   127    14    16   am
   128    85    82    1
   129   185   186    1
   130   153   152    2
   131   152   151    1
   132    83    82    1
   133    83    84    2
   134    24    25    1
   135    82    81    1
   136   137   134    1
   137   187   186    2
   138    25    28    1
   139    25    26    1
   140    51    49   ar
   141    51    50   ar
   142   134   135    1
   143   143   140    1
   144    49    47   ar
   145    28    29    1
   146   150   151    1
   147   150   141   am
   148    50    48   ar
   149   151   154    1
   150    26    27    2
   151    45    44    2
   152    47    48   ar
   153    47    46    1
   154    30    29   ar
   155    30    32   ar
   156   140   141    1
   157   140   139    1
   158   141   142    2
   159   135   136    2
   160    29    31   ar
   161    46    43    1
   162   154   155    1
   163   155   156    1
   164    32    34   ar
   165    44    43    1
   166    43    42    1
   167   156   157    1
   168    40    39    1
   169   157   158    2
   170    31    33   ar
   171    59    57   ar
   172    34    33   ar
   173    41    39    1
   174   158   160    1
   175   158   159    1
   176    39    36    1
   177    57    58   ar
   178    57    56    1
   179    38    37    2
   180    36    37    1
   181    36    35    1
   182    56    53    1
   183    55    54    2
   184    53    54    1
   185    53    52    1
