@<TRIPOS>MOLECULE
tmp/2a4rA00.pdb
 189 182 0 0 0
SMALL
GASTEIGER

@<TRIPOS>ATOM
      1  N        210.3470   -6.8830   53.5530 N.3    40  THR40      -0.1203
      2  CA       209.5490   -7.4690   52.4970 C.3    40  THR40       0.1994
      3  C        208.4260   -6.5990   51.9360 C.2    40  THR40       0.2618
      4  O        208.1390   -6.6770   50.7430 O.2    40  THR40      -0.2717
      5  CB       208.9900   -8.8440   52.9560 C.3    40  THR40       0.1784
      6  OG1      208.0640   -8.6680   54.0420 O.3    40  THR40      -0.2211
      7  CG2      210.1380   -9.7300   53.4500 C.3    40  THR40       0.0376
      8  N        207.8010   -5.7660   52.7680 N.am   41  GLN41      -0.1965
      9  CA       206.6930   -4.9390   52.2880 C.3    41  GLN41       0.1733
     10  C        206.4490   -3.6520   53.0680 C.2    41  GLN41       0.2617
     11  O        206.9480   -3.4780   54.1830 O.2    41  GLN41      -0.2715
     12  CB       205.4020   -5.7630   52.2690 C.3    41  GLN41       0.0408
     13  CG       204.9250   -6.1950   53.6320 C.3    41  GLN41       0.0908
     14  CD       203.7540   -7.1490   53.5580 C.2    41  GLN41       0.2608
     15  OE1      202.7040   -6.8360   52.9900 O.2    41  GLN41      -0.2717
     16  NE2      203.9330   -8.3290   54.1220 N.am   41  GLN41      -0.0878
     17  N        205.6520   -2.7680   52.4710 N.am   42  THR42      -0.1937
     18  CA       205.3110   -1.4960   53.0770 C.3    42  THR42       0.2028
     19  C        203.8000   -1.3570   53.0950 C.2    42  THR42       0.2642
     20  O        203.1150   -1.6990   52.1310 O.2    42  THR42      -0.2714
     21  CB       205.9820   -0.3260   52.3430 C.3    42  THR42       0.1808
     22  OG1      205.6630    0.9040   53.0000 O.3    42  THR42      -0.2208
     23  CG2      205.5340   -0.2600   50.9040 C.3    42  THR42       0.0379
     24  N        203.2890   -0.9040   54.2310 N.am   43  PHE43      -0.1973
     25  CA       201.8620   -0.7490   54.4570 C.3    43  PHE43       0.1639
     26  C        201.6120    0.3930   55.4470 C.2    43  PHE43       0.2290
     27  O        202.4430    1.2990   55.5740 O.2    43  PHE43      -0.2864
     28  CB       201.2440   -2.0880   54.9460 C.3    43  PHE43       0.0560
     29  CG       202.0960   -2.8470   55.9530 C.ar   43  PHE43      -0.0200
     30  CD1      203.3000   -3.4420   55.5720 C.ar   43  PHE43      -0.0042
     31  CD2      201.7220   -2.9200   57.2900 C.ar   43  PHE43      -0.0042
     32  CE1      204.1130   -4.0810   56.5050 C.ar   43  PHE43      -0.0003
     33  CE2      202.5340   -3.5590   58.2250 C.ar   43  PHE43      -0.0003
     34  CZ       203.7310   -4.1350   57.8260 C.ar   43  PHE43      -0.0000
     35  N        197.9600   -4.3810   60.4500 N.3    55  VAL55      -0.1245
     36  CA       197.5130   -5.6530   59.9430 C.3    55  VAL55       0.1561
     37  C        198.5610   -6.7660   60.2010 C.2    55  VAL55       0.2260
     38  O        199.7420   -6.6130   59.8860 O.2    55  VAL55      -0.2867
     39  CB       197.1590   -5.4410   58.4530 C.3    55  VAL55       0.0252
     40  CG1      198.3730   -5.6110   57.5570 C.3    55  VAL55       0.0019
     41  CG2      195.9530   -6.2420   58.0710 C.3    55  VAL55       0.0019
     42  N        198.9300   -9.5200   58.7510 N.3    57  HIS57      -0.1226
     43  CA       199.4850  -10.0470   57.5050 C.3    57  HIS57       0.1752
     44  C        200.6060   -9.1920   56.9290 C.2    57  HIS57       0.2596
     45  O        201.1740   -9.5110   55.8930 O.2    57  HIS57      -0.2718
     46  CB       198.4070  -10.3730   56.4430 C.3    57  HIS57       0.0759
     47  CG       197.6250   -9.1960   55.9210 C.ar   57  HIS57       0.0818
     48  ND1      196.2910   -9.0080   56.2190 N.ar   57  HIS57      -0.2268
     49  CD2      197.9380   -8.2480   55.0020 C.ar   57  HIS57       0.1154
     50  CE1      195.8120   -8.0020   55.5060 C.ar   57  HIS57       0.1986
     51  NE2      196.7880   -7.5270   54.7570 N.ar   57  HIS57      -0.2212
     52  N        200.9330   -8.1110   57.6220 N.am   58  GLY58      -0.1957
     53  CA       202.0020   -7.2550   57.1760 C.3    58  GLY58       0.1869
     54  C        203.0940   -7.2250   58.2190 C.2    58  GLY58       0.2309
     55  O        204.2700   -7.3590   57.8930 O.2    58  GLY58      -0.2863
     56  N        193.6560  -10.7750   62.6780 N.3    81  ASP81      -0.1239
     57  CA       194.6050  -10.2500   61.7050 C.3    81  ASP81       0.1674
     58  C        195.0780   -8.8850   62.1880 C.2    81  ASP81       0.2266
     59  O        195.3000   -7.9830   61.3960 O.2    81  ASP81      -0.2867
     60  CB       193.9550  -10.1470   60.3220 C.3    81  ASP81       0.1410
     61  CG       194.9620   -9.9090   59.2070 C.2    81  ASP81       0.3668
     62  OD1      196.1210  -10.3640   59.3210 O.co2  81  ASP81      -0.2456
     63  OD2      194.5880   -9.2670   58.2060 O.co2  81  ASP81      -0.2456
     64  N        197.6040    5.3430   51.5820 N.3   109  ARG109     -0.1231
     65  CA       198.9940    5.6920   51.8680 C.3   109  ARG109      0.1694
     66  C        199.4600    6.9110   51.1050 C.2   109  ARG109      0.2592
     67  O        200.5470    7.4170   51.3580 O.2   109  ARG109     -0.2718
     68  CB       199.9540    4.5300   51.5830 C.3   109  ARG109      0.0321
     69  CG       200.1170    4.1930   50.1070 C.3   109  ARG109      0.0489
     70  CD       201.5010    3.6420   49.8160 C.3   109  ARG109      0.2205
     71  NE       201.8270    2.5890   50.7540 N.pl3 109  ARG109     -0.0865
     72  CZ       202.9700    2.5100   51.4210 C.cat 109  ARG109      0.5346
     73  NH1      203.9130    3.4210   51.2330 N.pl3 109  ARG109      0.1354
     74  NH2      203.1320    1.5660   52.3420 N.pl3 109  ARG109      0.1354
     75  N        198.6660    7.3520   50.1360 N.am  110  HIS110     -0.1976
     76  CA       199.0180    8.5390   49.3540 C.3   110  HIS110      0.1656
     77  C        198.3130    9.7480   49.9320 C.2   110  HIS110      0.2291
     78  O        198.3620   10.8340   49.3550 O.2   110  HIS110     -0.2864
     79  CB       198.6020    8.3600   47.9020 C.3   110  HIS110      0.0771
     80  CG       199.0080    7.0430   47.3390 C.ar  110  HIS110      0.0820
     81  ND1      200.3230    6.7200   47.0870 N.ar  110  HIS110     -0.2267
     82  CD2      198.2860    5.9330   47.0610 C.ar  110  HIS110      0.1154
     83  CE1      200.3960    5.4640   46.6850 C.ar  110  HIS110      0.1986
     84  NE2      199.1730    4.9640   46.6620 N.ar  110  HIS110     -0.2212
     85  N        182.5140   -4.7910   55.7890 N.3   123  ARG123     -0.1245
     86  CA       182.6200   -4.4830   54.3720 C.3   123  ARG123      0.1563
     87  C        181.9420   -3.1940   53.9430 C.2   123  ARG123      0.2260
     88  O        180.9910   -2.7410   54.5590 O.2   123  ARG123     -0.2867
     89  CB       182.1330   -5.6540   53.5260 C.3   123  ARG123      0.0307
     90  CG       182.4360   -5.4790   52.0540 C.3   123  ARG123      0.0489
     91  CD       182.6360   -6.8000   51.3510 C.3   123  ARG123      0.2205
     92  NE       183.6540   -7.6220   52.0060 N.pl3 123  ARG123     -0.0865
     93  CZ       183.9790   -8.8480   51.6070 C.cat 123  ARG123      0.5346
     94  NH1      183.3730   -9.3880   50.5500 N.pl3 123  ARG123      0.1354
     95  NH2      184.8740   -9.5550   52.2880 N.pl3 123  ARG123      0.1354
     96  N        193.4020   -1.7620   41.6850 N.3   132  ILE132     -0.1231
     97  CA       193.8900   -2.4190   42.8870 C.3   132  ILE132      0.1692
     98  C        195.2600   -1.8600   43.2870 C.2   132  ILE132      0.2592
     99  O        195.5810   -1.7630   44.4730 O.2   132  ILE132     -0.2718
    100  CB       193.9690   -3.9510   42.6850 C.3   132  ILE132      0.0266
    101  CG1      194.2440   -4.6350   44.0120 C.3   132  ILE132      0.0019
    102  CG2      195.0620   -4.3210   41.6990 C.3   132  ILE132      0.0020
    103  CD1      193.1290   -4.4650   44.9960 C.3   132  ILE132      0.0001
    104  N        196.0290   -1.4340   42.2880 N.am  133  SER133     -0.1952
    105  CA       197.3710   -0.8780   42.4770 C.3   133  SER133      0.1924
    106  C        197.3490    0.4110   43.2790 C.2   133  SER133      0.2314
    107  O        198.3490    0.8000   43.8820 O.2   133  SER133     -0.2863
    108  CB       198.0170   -0.5960   41.1160 C.3   133  SER133      0.2116
    109  OG       197.2980    0.4060   40.4010 O.3   133  SER133     -0.2180
    110  N        195.2450    0.9290   45.7420 N.3   135  LEU135     -0.1231
    111  CA       194.9750    0.5680   47.1180 C.3   135  LEU135      0.1693
    112  C        196.1280   -0.2110   47.7460 C.2   135  LEU135      0.2592
    113  O        196.1850   -0.3570   48.9610 O.2   135  LEU135     -0.2718
    114  CB       193.6650   -0.2090   47.2040 C.3   135  LEU135      0.0284
    115  CG       192.4770    0.5830   47.7490 C.3   135  LEU135      0.0019
    116  CD1      192.5640    2.0310   47.3380 C.3   135  LEU135      0.0001
    117  CD2      191.1780   -0.0360   47.2930 C.3   135  LEU135      0.0001
    118  N        197.0710   -0.6840   46.9400 N.am  136  LYS136     -0.1966
    119  CA       198.1950   -1.4280   47.4920 C.3   136  LYS136      0.1728
    120  C        199.0350   -0.5490   48.3890 C.2   136  LYS136      0.2616
    121  O        199.3150    0.6050   48.0630 O.2   136  LYS136     -0.2715
    122  CB       199.0660   -2.0270   46.3930 C.3   136  LYS136      0.0311
    123  CG       198.4090   -3.1740   45.6670 C.3   136  LYS136      0.0038
    124  CD       199.4090   -3.9500   44.8360 C.3   136  LYS136      0.0206
    125  CE       198.7150   -5.0630   44.0690 C.3   136  LYS136      0.1093
    126  NZ       199.6780   -5.8510   43.2540 N.3   136  LYS136     -0.1314
    127  N        199.4280   -1.1010   49.5290 N.am  137  GLY137     -0.1955
    128  CA       200.2310   -0.3550   50.4720 C.3   137  GLY137      0.1869
    129  C        199.4000    0.3020   51.5500 C.2   137  GLY137      0.2309
    130  O        199.9480    0.8250   52.5020 O.2   137  GLY137     -0.2863
    131  N        197.0260   -1.3390   53.5650 N.3   139  SER139     -0.1217
    132  CA       196.5320   -2.2400   54.6130 C.3   139  SER139      0.1889
    133  C        196.9450   -1.6860   55.9660 C.2   139  SER139      0.2288
    134  O        198.1120   -1.3370   56.1610 O.2   139  SER139     -0.2866
    135  CB       197.1130   -3.6420   54.4560 C.3   139  SER139      0.2089
    136  OG       196.6180   -4.0980   53.2200 O.3   139  SER139     -0.2183
    137  N        191.5990   -0.8880   57.0420 N.3   154  PHE154     -0.1227
    138  CA       191.5680   -1.5500   55.7330 C.3   154  PHE154      0.1736
    139  C        192.3580   -2.8590   55.7760 C.2   154  PHE154      0.2595
    140  O        193.4870   -2.8850   56.2580 O.2   154  PHE154     -0.2718
    141  CB       192.1480   -0.5920   54.6860 C.3   154  PHE154      0.0547
    142  CG       192.2880   -1.1740   53.3130 C.ar  154  PHE154     -0.0202
    143  CD1      191.2390   -1.8510   52.7140 C.ar  154  PHE154     -0.0042
    144  CD2      193.4740   -1.0120   52.6030 C.ar  154  PHE154     -0.0042
    145  CE1      191.3720   -2.3520   51.4270 C.ar  154  PHE154     -0.0003
    146  CE2      193.6150   -1.5090   51.3140 C.ar  154  PHE154     -0.0003
    147  CZ       192.5650   -2.1790   50.7240 C.ar  154  PHE154     -0.0000
    148  N        191.7780   -3.9360   55.2530 N.am  155  ARG155     -0.1966
    149  CA       192.4460   -5.2330   55.2710 C.3   155  ARG155      0.1729
    150  C        192.6580   -5.8900   53.9110 C.2   155  ARG155      0.2616
    151  O        193.7470   -6.3890   53.6160 O.2   155  ARG155     -0.2715
    152  CB       191.6680   -6.2000   56.1600 C.3   155  ARG155      0.0348
    153  CG       192.4730   -7.4140   56.5490 C.3   155  ARG155      0.0492
    154  CD       191.6810   -8.3250   57.4430 C.3   155  ARG155      0.2205
    155  NE       190.9610   -9.3060   56.6500 N.pl3 155  ARG155     -0.0865
    156  CZ       191.4390  -10.5070   56.3400 C.cat 155  ARG155      0.5346
    157  NH1      192.6380  -10.8830   56.7710 N.pl3 155  ARG155      0.1354
    158  NH2      190.7450  -11.3100   55.5370 N.pl3 155  ARG155      0.1354
    159  N        191.5930   -5.9470   53.1210 N.am  156  ALA156     -0.1963
    160  CA       191.6370   -6.5700   51.8050 C.3   156  ALA156      0.1728
    161  C        190.6680   -5.8980   50.8340 C.2   156  ALA156      0.2616
    162  O        189.7160   -5.2290   51.2440 O.2   156  ALA156     -0.2715
    163  CB       191.3180   -8.0550   51.9220 C.3   156  ALA156      0.0334
    164  N        190.9230   -6.0620   49.5430 N.am  157  ALA157     -0.1963
    165  CA       190.0740   -5.4480   48.5440 C.3   157  ALA157      0.1728
    166  C        189.3490   -6.4960   47.7290 C.2   157  ALA157      0.2616
    167  O        189.9080   -7.5520   47.4310 O.2   157  ALA157     -0.2715
    168  CB       190.9000   -4.5550   47.6380 C.3   157  ALA157      0.0334
    169  N        188.0900   -6.2070   47.4100 N.am  158  VAL158     -0.1963
    170  CA       187.2480   -7.0830   46.5970 C.3   158  VAL158      0.1727
    171  C        187.3470   -6.5160   45.1870 C.2   158  VAL158      0.2616
    172  O        186.6810   -5.5340   44.8490 O.2   158  VAL158     -0.2715
    173  CB       185.7710   -7.0240   47.0370 C.3   158  VAL158      0.0290
    174  CG1      184.9370   -7.9960   46.2170 C.3   158  VAL158      0.0023
    175  CG2      185.6380   -7.3160   48.5140 C.3   158  VAL158      0.0023
    176  N        188.1930   -7.1180   44.3680 N.am  159  CYS159     -0.1968
    177  CA       188.3860   -6.6240   43.0180 C.3   159  CYS159      0.1712
    178  C        188.2320   -7.6870   41.9500 C.2   159  CYS159      0.2296
    179  O        188.2530   -8.8880   42.2390 O.2   159  CYS159     -0.2864
    180  CB       189.7690   -5.9990   42.9070 C.3   159  CYS159      0.0983
    181  SG       191.0800   -7.0990   43.4060 S.3   159  CYS159     -0.0798
    182  N        187.3760   -4.9690   52.4260 N.3   168  ASP168     -0.1239
    183  CA       187.1290   -5.7230   53.6280 C.3   168  ASP168      0.1674
    184  C        187.9630   -5.0380   54.6940 C.2   168  ASP168      0.2266
    185  O        189.1400   -4.7400   54.4720 O.2   168  ASP168     -0.2867
    186  CB       187.5900   -7.1640   53.4450 C.3   168  ASP168      0.1410
    187  CG       187.1950   -8.0390   54.6020 C.2   168  ASP168      0.3668
    188  OD1      186.0050   -8.4290   54.6540 O.co2 168  ASP168     -0.2456
    189  OD2      188.0580   -8.3110   55.4700 O.co2 168  ASP168     -0.2456
@<TRIPOS>BOND
     1   109   108    1
     2   108   105    1
     3    96    97    1
     4   102   100    1
     5   178   179    2
     6   178   177    1
     7   104   105    1
     8   104    98   am
     9   105   106    1
    10   100    97    1
    11   100   101    1
    12    97    98    1
    13   180   177    1
    14   180   181    1
    15   177   176    1
    16   126   125    1
    17   106   107    2
    18    98    99    2
    19   101   103    1
    20   125   124    1
    21   176   171   am
    22   124   123    1
    23   172   171    2
    24   171   170    1
    25   123   122    1
    26   110   111    1
    27   174   173    1
    28   122   119    1
    29   170   173    1
    30   170   169    1
    31    84    83   ar
    32    84    82   ar
    33    83    81   ar
    34   118   119    1
    35   118   112   am
    36   173   175    1
    37    82    80   ar
    38    81    80   ar
    39   111   114    1
    40   111   112    1
    41   114   115    1
    42   117   115    1
    43   116   115    1
    44    80    79    1
    45   169   166   am
    46   167   166    2
    47   119   120    1
    48   168   165    1
    49   166   165    1
    50   112   113    2
    51    79    76    1
    52   121   120    2
    53   120   127   am
    54   165   164    1
    55    76    77    1
    56    76    75    1
    57    78    77    2
    58   127   128    1
    59   164   161   am
    60    70    69    1
    61    70    71    1
    62    69    68    1
    63    75    66   am
    64   128   129    1
    65    94    93    1
    66   147   146   ar
    67   147   145   ar
    68     4     3    2
    69    71    72    2
    70   161   162    2
    71   161   160    1
    72    23    21    1
    73    66    67    2
    74    66    65    1
    75    73    72    1
    76   146   144   ar
    77    91    92    1
    78    91    90    1
    79    72    74    1
    80   145   143   ar
    81   129   130    2
    82    64    65    1
    83    68    65    1
    84    93    92    2
    85    93    95    1
    86   160   163    1
    87   160   159    1
    88     3     2    1
    89     3     8   am
    90    90    89    1
    91    20    19    2
    92    12     9    1
    93    12    13    1
    94     9     8    1
    95     9    10    1
    96    21    22    1
    97    21    18    1
    98   182   183    1
    99    17    10   am
   100    17    18    1
   101     2     5    1
   102     2     1    1
   103   144   142   ar
   104   143   142   ar
   105     5     7    1
   106     5     6    1
   107    15    14    2
   108    10    11    2
   109    18    19    1
   110    19    24   am
   111   159   150   am
   112   136   135    1
   113   142   141    1
   114   186   183    1
   115   186   187    1
   116    89    86    1
   117    14    13    1
   118    14    16   am
   119   131   132    1
   120   151   150    2
   121   183   184    1
   122   150   149    1
   123    87    86    1
   124    87    88    2
   125    24    25    1
   126    86    85    1
   127   135   132    1
   128    25    28    1
   129    25    26    1
   130   185   184    2
   131   187   188   ar
   132   187   189   ar
   133   132   133    1
   134   141   138    1
   135    51    49   ar
   136    51    50   ar
   137    28    29    1
   138    49    47   ar
   139   148   149    1
   140   148   139   am
   141   149   152    1
   142    26    27    2
   143    50    48   ar
   144   158   156    1
   145    30    29   ar
   146    30    32   ar
   147   138   139    1
   148   138   137    1
   149   139   140    2
   150    45    44    2
   151    47    48   ar
   152    47    46    1
   153    29    31   ar
   154   133   134    2
   155   152   153    1
   156   156   155    2
   157   156   157    1
   158    46    43    1
   159    32    34   ar
   160   153   154    1
   161   155   154    1
   162    44    43    1
   163    44    52   am
   164    53    52    1
   165    53    54    1
   166    31    33   ar
   167    43    42    1
   168    40    39    1
   169    34    33   ar
   170    55    54    2
   171    41    39    1
   172    63    61   ar
   173    39    36    1
   174    61    62   ar
   175    61    60    1
   176    38    37    2
   177    36    37    1
   178    36    35    1
   179    60    57    1
   180    59    58    2
   181    57    58    1
   182    57    56    1
