@<TRIPOS>MOLECULE
tmp/2a4xB00.pdb
 93 89 0 0 0
SMALL
GASTEIGER

@<TRIPOS>ATOM
      1  N          2.4530    1.5980   33.9000 N.3     5  SER5       -0.1202
      2  CA         2.9080    1.0570   32.6340 C.3     5  SER5        0.2020
      3  C          4.3930    0.7020   32.6240 C.2     5  SER5        0.2618
      4  O          4.8030   -0.2580   31.9690 O.2     5  SER5       -0.2717
      5  CB         2.5930    2.0760   31.5260 C.3     5  SER5        0.2103
      6  OG         3.2920    1.8070   30.3240 O.3     5  SER5       -0.2182
      7  N          5.1970    1.4470   33.3780 N.am    6  LEU6       -0.1979
      8  CA         6.6270    1.2100   33.3660 C.3     6  LEU6        0.1596
      9  C          7.3460    1.4960   34.6940 C.2     6  LEU6        0.2287
     10  O          6.9420    2.3700   35.4610 O.2     6  LEU6       -0.2864
     11  CB         7.2140    2.0750   32.2460 C.3     6  LEU6        0.0297
     12  CG         8.6740    2.1030   31.8300 C.3     6  LEU6        0.0022
     13  CD1        8.7650    2.1020   30.3050 C.3     6  LEU6        0.0001
     14  CD2        9.3230    3.3550   32.3860 C.3     6  LEU6        0.0001
     15  N         20.8060    4.1730   24.9320 N.3    36  PRO36      -0.2102
     16  CA        20.6870    5.0850   26.0790 C.3    36  PRO36       0.1504
     17  C         19.4260    4.7520   26.8730 C.2    36  PRO36       0.2575
     18  O         19.2300    5.2310   27.9900 O.2    36  PRO36      -0.2718
     19  CB        20.5890    6.4640   25.4320 C.3    36  PRO36       0.0282
     20  CG        19.8700    6.1930   24.1370 C.3    36  PRO36       0.0208
     21  CD        20.3070    4.7990   23.6900 C.3    36  PRO36       0.0893
     22  N         18.5750    3.9300   26.2690 N.am   37  HIS37      -0.1976
     23  CA        17.3240    3.5120   26.8800 C.3    37  HIS37       0.1656
     24  C         16.9800    2.1060   26.4070 C.2    37  HIS37       0.2291
     25  O         17.0960    1.7900   25.2210 O.2    37  HIS37      -0.2864
     26  CB        16.2090    4.4840   26.4900 C.3    37  HIS37       0.0771
     27  CG        14.8320    4.0110   26.8410 C.ar   37  HIS37       0.0820
     28  ND1       14.2060    4.3500   28.0230 N.ar   37  HIS37      -0.2267
     29  CD2       13.9400    3.2660   26.1440 C.ar   37  HIS37       0.1154
     30  CE1       12.9880    3.8370   28.0380 C.ar   37  HIS37       0.1986
     31  NE2       12.8020    3.1750   26.9100 N.ar   37  HIS37      -0.2212
     32  N         14.0860   -1.3410   27.1650 N.3    39  GLU39      -0.1245
     33  CA        12.8010   -1.7370   27.7450 C.3    39  GLU39       0.1567
     34  C         12.5840   -3.2360   27.5910 C.2    39  GLU39       0.2260
     35  O         13.0400   -3.8310   26.6160 O.2    39  GLU39      -0.2867
     36  CB        11.6490   -1.0210   27.0330 C.3    39  GLU39       0.0388
     37  CG        11.1980    0.2680   27.6780 C.3    39  GLU39       0.1160
     38  CD        10.1840    1.0230   26.8310 C.2    39  GLU39       0.3649
     39  OE1       10.1000    2.2570   26.9860 O.co2  39  GLU39      -0.2457
     40  OE2        9.4670    0.3900   26.0200 O.co2  39  GLU39      -0.2457
     41  N          6.2640   -2.7340   31.7240 N.3    47  ARG47      -0.1245
     42  CA         7.6390   -2.7900   31.2830 C.3    47  ARG47       0.1563
     43  C          8.6420   -2.3710   32.3390 C.2    47  ARG47       0.2260
     44  O          8.3330   -1.5850   33.2260 O.2    47  ARG47      -0.2867
     45  CB         7.8100   -1.9040   30.0410 C.3    47  ARG47       0.0307
     46  CG         7.5290   -2.6280   28.7310 C.3    47  ARG47       0.0489
     47  CD         7.3060   -1.6670   27.5730 C.3    47  ARG47       0.2205
     48  NE         7.0670   -0.3030   28.0260 N.pl3  47  ARG47      -0.0865
     49  CZ         5.9250    0.1160   28.5590 C.cat  47  ARG47       0.5346
     50  NH1        4.9050   -0.7290   28.7080 N.pl3  47  ARG47       0.1354
     51  NH2        5.8020    1.3810   28.9530 N.pl3  47  ARG47       0.1354
     52  N         17.6070    3.6060   31.8350 N.3    51  ASP51      -0.1239
     53  CA        17.9860    4.8730   31.2180 C.3    51  ASP51       0.1674
     54  C         19.3450    5.2910   31.7370 C.2    51  ASP51       0.2266
     55  O         19.5530    5.3510   32.9470 O.2    51  ASP51      -0.2867
     56  CB        16.9680    5.9600   31.5630 C.3    51  ASP51       0.1410
     57  CG        15.6310    5.7310   30.9020 C.2    51  ASP51       0.3668
     58  OD1       15.5910    5.7040   29.6530 O.co2  51  ASP51      -0.2456
     59  OD2       14.6270    5.5770   31.6330 O.co2  51  ASP51      -0.2456
     60  N         21.0720   10.3090   29.8420 N.3    55  THR55      -0.1203
     61  CA        19.6990   10.4360   29.3810 C.3    55  THR55       0.1994
     62  C         18.9510   11.1530   30.5020 C.2    55  THR55       0.2617
     63  O         18.2250   12.1150   30.2620 O.2    55  THR55      -0.2717
     64  CB        19.0690    9.0330   29.1280 C.3    55  THR55       0.1784
     65  OG1       19.8410    8.3330   28.1470 O.3    55  THR55      -0.2211
     66  CG2       17.6350    9.1540   28.6230 C.3    55  THR55       0.0376
     67  N         19.1610   10.6890   31.7340 N.am   56  VAL56      -0.1979
     68  CA        18.5140   11.2700   32.9090 C.3    56  VAL56       0.1595
     69  C         18.9300   12.7200   33.1590 C.2    56  VAL56       0.2287
     70  O         18.0770   13.5810   33.3450 O.2    56  VAL56      -0.2864
     71  CB        18.8100   10.4260   34.1910 C.3    56  VAL56       0.0276
     72  CG1       18.3890   11.1920   35.4510 C.3    56  VAL56       0.0022
     73  CG2       18.0780    9.0940   34.1090 C.3    56  VAL56       0.0022
     74  N         17.1070   15.9070   31.5230 N.3    59  TYR59      -0.1227
     75  CA        16.0040   16.5930   32.2060 C.3    59  TYR59       0.1736
     76  C         16.2660   16.7000   33.7130 C.2    59  TYR59       0.2595
     77  O         15.3340   16.8680   34.5030 O.2    59  TYR59      -0.2718
     78  CB        14.6900   15.8280   31.9860 C.3    59  TYR59       0.0548
     79  CG        14.3080   15.6640   30.5370 C.ar   59  TYR59      -0.0200
     80  CD1       14.5840   14.4830   29.8510 C.ar   59  TYR59      -0.0009
     81  CD2       13.7070   16.7080   29.8370 C.ar   59  TYR59      -0.0009
     82  CE1       14.2760   14.3470   28.4970 C.ar   59  TYR59       0.0417
     83  CE2       13.3950   16.5870   28.4850 C.ar   59  TYR59       0.0417
     84  CZ        13.6840   15.4060   27.8180 C.ar   59  TYR59       0.1957
     85  OH        13.4000   15.3050   26.4700 O.3    59  TYR59      -0.2866
     86  N         17.5370   16.6080   34.0990 N.am   60  ASP60      -0.1974
     87  CA        17.9460   16.6670   35.5020 C.3    60  ASP60       0.1709
     88  C         19.4760   16.7360   35.5380 C.2    60  ASP60       0.2293
     89  O         20.1440   15.7830   35.9460 O.2    60  ASP60      -0.2864
     90  CB        17.4590   15.4060   36.2240 C.3    60  ASP60       0.1436
     91  CG        17.6050   15.4950   37.7270 C.2    60  ASP60       0.3671
     92  OD1       18.2970   16.4160   38.2130 O.co2  60  ASP60      -0.2456
     93  OD2       17.0210   14.6350   38.4210 O.co2  60  ASP60      -0.2456
@<TRIPOS>BOND
     1    21    20    1
     2    21    15    1
     3    20    19    1
     4    15    16    1
     5    25    24    2
     6    19    16    1
     7    40    38   ar
     8    16    17    1
     9    29    27   ar
    10    29    31   ar
    11    22    17   am
    12    22    23    1
    13    24    23    1
    14    85    84    1
    15    26    27    1
    16    26    23    1
    17    35    34    2
    18    38    39   ar
    19    38    37    1
    20    27    28   ar
    21    17    18    2
    22    31    30   ar
    23    36    37    1
    24    36    33    1
    25    32    33    1
    26    47    48    1
    27    47    46    1
    28    34    33    1
    29    84    83   ar
    30    84    82   ar
    31    28    30   ar
    32    48    49    2
    33    65    64    1
    34    83    81   ar
    35    82    80   ar
    36    49    50    1
    37    49    51    1
    38    66    64    1
    39    46    45    1
    40    64    61    1
    41    61    60    1
    42    61    62    1
    43    58    57   ar
    44    81    79   ar
    45    80    79   ar
    46    45    42    1
    47    63    62    2
    48    13    12    1
    49     6     5    1
    50    62    67   am
    51    79    78    1
    52    57    56    1
    53    57    59   ar
    54    53    56    1
    55    53    54    1
    56    53    52    1
    57    42    41    1
    58    42    43    1
    59    74    75    1
    60     5     2    1
    61    67    68    1
    62    54    55    2
    63    12    11    1
    64    12    14    1
    65     4     3    2
    66    78    75    1
    67    75    76    1
    68    11     8    1
    69    43    44    2
    70     3     2    1
    71     3     7   am
    72     2     1    1
    73    68    69    1
    74    68    71    1
    75    69    70    2
    76     8     7    1
    77     8     9    1
    78    76    86   am
    79    76    77    2
    80    86    87    1
    81    73    71    1
    82    71    72    1
    83     9    10    2
    84    87    88    1
    85    87    90    1
    86    88    89    2
    87    90    91    1
    88    91    92   ar
    89    91    93   ar
