@<TRIPOS>MOLECULE
tmp/2a4xA00.pdb
 141 136 0 0 0
SMALL
GASTEIGER

@<TRIPOS>ATOM
      1  N         17.7200   10.1770   42.1940 N.3    70  HIS70      -0.1241
      2  CA        16.7700    9.0730   42.2280 C.3    70  HIS70       0.1621
      3  C         17.3340    7.8950   41.4420 C.2    70  HIS70       0.2264
      4  O         18.0090    8.0750   40.4310 O.2    70  HIS70      -0.2867
      5  CB        15.4030    9.5100   41.6540 C.3    70  HIS70       0.0745
      6  CG        15.4200    9.8380   40.1910 C.ar   70  HIS70       0.0817
      7  ND1       15.8700   11.0460   39.6990 N.ar   70  HIS70      -0.2268
      8  CD2       14.9930    9.1340   39.1150 C.ar   70  HIS70       0.1154
      9  CE1       15.7160   11.0710   38.3860 C.ar   70  HIS70       0.1986
     10  NE2       15.1860    9.9230   38.0080 N.ar   70  HIS70      -0.2212
     11  N         12.0720    5.3740   38.6590 N.3    73  ALA73      -0.1245
     12  CA        10.8650    6.1620   38.4250 C.3    73  ALA73       0.1562
     13  C          9.7190    5.2160   38.0880 C.2    73  ALA73       0.2260
     14  O          9.9360    4.1430   37.5270 O.2    73  ALA73      -0.2867
     15  CB        11.0800    7.1470   37.2770 C.3    73  ALA73       0.0290
     16  N          0.4760    5.5330   32.5980 N.3    77  GLU77      -0.1245
     17  CA        -0.0260    5.8460   31.2740 C.3    77  GLU77       0.1567
     18  C         -1.4830    6.3000   31.3210 C.2    77  GLU77       0.2260
     19  O         -2.3020    5.7510   32.0630 O.2    77  GLU77      -0.2867
     20  CB         0.1010    4.6320   30.3650 C.3    77  GLU77       0.0388
     21  CG        -0.5290    4.8430   29.0110 C.3    77  GLU77       0.1160
     22  CD        -0.1310    3.7820   28.0170 C.2    77  GLU77       0.3649
     23  OE1       -0.1680    4.0660   26.8000 O.co2  77  GLU77      -0.2457
     24  OE2        0.2180    2.6640   28.4510 O.co2  77  GLU77      -0.2457
     25  N          7.0030   18.5040   39.4790 N.3    99  HIS99      -0.1226
     26  CA         8.3980   18.6590   39.0750 C.3    99  HIS99       0.1752
     27  C          8.6040   19.2600   37.6780 C.2    99  HIS99       0.2595
     28  O          9.3590   20.2180   37.5100 O.2    99  HIS99      -0.2718
     29  CB         9.0940   17.2970   39.1810 C.3    99  HIS99       0.0759
     30  CG        10.5650   17.3470   38.9260 C.ar   99  HIS99       0.0818
     31  ND1       11.4400   18.0250   39.7440 N.ar   99  HIS99      -0.2268
     32  CD2       11.3140   16.8070   37.9350 C.ar   99  HIS99       0.1154
     33  CE1       12.6670   17.9040   39.2690 C.ar   99  HIS99       0.1986
     34  NE2       12.6190   17.1700   38.1710 N.ar   99  HIS99      -0.2212
     35  N          7.9460   18.6840   36.6800 N.am  100  LEU100     -0.1980
     36  CA         8.0460   19.1750   35.3070 C.3   100  LEU100      0.1596
     37  C          6.6410   19.1840   34.7460 C.2   100  LEU100      0.2287
     38  O          6.0180   18.1330   34.6180 O.2   100  LEU100     -0.2864
     39  CB         8.9310   18.2570   34.4540 C.3   100  LEU100      0.0297
     40  CG        10.4450   18.5020   34.4050 C.3   100  LEU100      0.0022
     41  CD1       11.0720   17.5280   33.4110 C.3   100  LEU100      0.0001
     42  CD2       10.7430   19.9490   34.0040 C.3   100  LEU100      0.0001
     43  N          4.4260   18.5650   28.8230 N.3   103  TRP103     -0.1241
     44  CA         5.0450   19.0150   27.5830 C.3   103  TRP103      0.1605
     45  C          4.9650   17.8780   26.5720 C.2   103  TRP103      0.2264
     46  O          4.6380   16.7440   26.9250 O.2   103  TRP103     -0.2867
     47  CB         6.5050   19.4600   27.8270 C.3   103  TRP103      0.0550
     48  CG         7.5670   18.3850   27.7800 C.ar  103  TRP103      0.0003
     49  CD1        8.3180   18.0220   26.6980 C.ar  103  TRP103      0.0946
     50  CD2        8.0160   17.5630   28.8690 C.ar  103  TRP103      0.0152
     51  NE1        9.2040   17.0290   27.0390 N.ar  103  TRP103     -0.2442
     52  CE2        9.0410   16.7260   28.3650 C.ar  103  TRP103      0.0810
     53  CE3        7.6520   17.4500   30.2220 C.ar  103  TRP103      0.0012
     54  CZ2        9.7090   15.7870   29.1670 C.ar  103  TRP103      0.0191
     55  CZ3        8.3150   16.5170   31.0180 C.ar  103  TRP103      0.0001
     56  CH2        9.3330   15.6980   30.4860 C.ar  103  TRP103      0.0015
     57  N         10.0310   12.0680   22.1750 N.3   107  TRP107     -0.1241
     58  CA         9.7870   10.6680   21.8600 C.3   107  TRP107      0.1605
     59  C          8.3130   10.3910   21.5320 C.2   107  TRP107      0.2264
     60  O          7.8850    9.2390   21.4600 O.2   107  TRP107     -0.2867
     61  CB        10.2870    9.7570   22.9970 C.3   107  TRP107      0.0550
     62  CG         9.7840   10.0840   24.3740 C.ar  107  TRP107      0.0003
     63  CD1        8.6790    9.5720   24.9770 C.ar  107  TRP107      0.0946
     64  CD2       10.3860   10.9680   25.3300 C.ar  107  TRP107      0.0152
     65  NE1        8.5500   10.0760   26.2430 N.ar  107  TRP107     -0.2442
     66  CE2        9.5840   10.9360   26.4880 C.ar  107  TRP107      0.0810
     67  CE3       11.5250   11.7850   25.3190 C.ar  107  TRP107      0.0012
     68  CZ2        9.8810   11.6900   27.6340 C.ar  107  TRP107      0.0191
     69  CZ3       11.8210   12.5390   26.4580 C.ar  107  TRP107      0.0001
     70  CH2       10.9990   12.4840   27.6000 C.ar  107  TRP107      0.0015
     71  N          5.2150   11.6100   23.1610 N.3   109  GLN109     -0.1245
     72  CA         4.2380   11.4170   24.2230 C.3   109  GLN109      0.1566
     73  C          4.0410   12.7080   24.9890 C.2   109  GLN109      0.2260
     74  O          4.9740   13.5050   25.1260 O.2   109  GLN109     -0.2867
     75  CB         4.7110   10.3680   25.2400 C.3   109  GLN109      0.0367
     76  CG         5.0180    8.9960   24.6820 C.3   109  GLN109      0.0905
     77  CD         5.4570    8.0220   25.7600 C.2   109  GLN109      0.2608
     78  OE1        6.1260    8.3940   26.7290 O.2   109  GLN109     -0.2717
     79  NE2        5.0800    6.7630   25.5950 N.am  109  GLN109     -0.0878
     80  N          4.0740   14.3480   28.2240 N.3   111  TYR111     -0.1241
     81  CA         4.8000   13.9210   29.4090 C.3   111  TYR111      0.1605
     82  C          4.8010   14.9450   30.5480 C.2   111  TYR111      0.2264
     83  O          4.7480   16.1490   30.3180 O.2   111  TYR111     -0.2867
     84  CB         6.2420   13.6030   28.9960 C.3   111  TYR111      0.0534
     85  CG         6.8570   12.4000   29.6750 C.ar  111  TYR111     -0.0201
     86  CD1        7.7290   12.5590   30.7540 C.ar  111  TYR111     -0.0009
     87  CD2        6.5890   11.1080   29.2280 C.ar  111  TYR111     -0.0009
     88  CE1        8.3200   11.4650   31.3710 C.ar  111  TYR111      0.0417
     89  CE2        7.1770   10.0000   29.8410 C.ar  111  TYR111      0.0417
     90  CZ         8.0430   10.1920   30.9120 C.ar  111  TYR111      0.1957
     91  OH         8.6400    9.1140   31.5160 O.3   111  TYR111     -0.2866
     92  N          6.0790   15.2670   35.0750 N.3   113  ILE113     -0.1245
     93  CA         6.7050   14.6040   36.2140 C.3   113  ILE113      0.1561
     94  C          6.3160   15.2240   37.5610 C.2   113  ILE113      0.2260
     95  O          6.3070   16.4480   37.7260 O.2   113  ILE113     -0.2867
     96  CB         8.2500   14.6060   36.0740 C.3   113  ILE113      0.0252
     97  CG1        8.6340   14.0650   34.6940 C.3   113  ILE113      0.0019
     98  CG2        8.8810   13.7540   37.1740 C.3   113  ILE113      0.0019
     99  CD1       10.1050   14.0610   34.4170 C.3   113  ILE113      0.0001
    100  N          6.3440   14.1870   42.1060 N.3   115  LYS115     -0.1245
    101  CA         7.0760   13.3960   43.0890 C.3   115  LYS115      0.1561
    102  C          6.0700   12.8200   44.0650 C.2   115  LYS115      0.2260
    103  O          5.0920   13.4900   44.3920 O.2   115  LYS115     -0.2867
    104  CB         8.0620   14.2690   43.8630 C.3   115  LYS115      0.0271
    105  CG         9.0180   15.0410   42.9990 C.3   115  LYS115      0.0035
    106  CD        10.2340   14.2140   42.6880 C.3   115  LYS115      0.0206
    107  CE        11.2900   15.0420   41.9950 C.3   115  LYS115      0.1093
    108  NZ        11.8330   14.3060   40.8220 N.3   115  LYS115     -0.1314
    109  N         10.3880    9.7990   41.9420 N.3   121  VAL121     -0.1245
    110  CA         9.9820   10.3540   40.6600 C.3   121  VAL121      0.1561
    111  C          8.8600    9.5300   40.0410 C.2   121  VAL121      0.2260
    112  O          8.9600    8.3110   39.9280 O.2   121  VAL121     -0.2867
    113  CB        11.1660   10.3950   39.6850 C.3   121  VAL121      0.0252
    114  CG1       10.6900   10.8350   38.3180 C.3   121  VAL121      0.0019
    115  CG2       12.2400   11.3430   40.2190 C.3   121  VAL121      0.0019
    116  N          6.3390    9.5490   36.6390 N.3   123  ASP123     -0.1239
    117  CA         6.0440   10.1110   35.3300 C.3   123  ASP123      0.1674
    118  C          4.5890    9.8810   34.9580 C.2   123  ASP123      0.2266
    119  O          4.0040    8.8450   35.2770 O.2   123  ASP123     -0.2867
    120  CB         6.9160    9.4630   34.2510 C.3   123  ASP123      0.1410
    121  CG         8.3790    9.4010   34.6320 C.2   123  ASP123      0.3668
    122  OD1        8.9950   10.4670   34.8130 O.co2 123  ASP123     -0.2456
    123  OD2        8.9160    8.2760   34.7440 O.co2 123  ASP123     -0.2456
    124  N          2.1650   10.0520   31.5140 N.3   125  PHE125     -0.1241
    125  CA         2.2830   10.1840   30.0690 C.3   125  PHE125      0.1605
    126  C          1.0980    9.6380   29.2810 C.2   125  PHE125      0.2264
    127  O          0.2930    8.8650   29.7930 O.2   125  PHE125     -0.2867
    128  CB         3.5850    9.5210   29.5860 C.3   125  PHE125      0.0534
    129  CG         3.5270    8.0180   29.5350 C.ar  125  PHE125     -0.0203
    130  CD1        3.9180    7.2550   30.6340 C.ar  125  PHE125     -0.0042
    131  CD2        3.0820    7.3620   28.3900 C.ar  125  PHE125     -0.0042
    132  CE1        3.8650    5.8600   30.5920 C.ar  125  PHE125     -0.0003
    133  CE2        3.0230    5.9730   28.3390 C.ar  125  PHE125     -0.0003
    134  CZ         3.4150    5.2190   29.4440 C.ar  125  PHE125     -0.0000
    135  N          0.1780    8.6850   24.8900 N.3   127  PRO127     -0.2116
    136  CA         0.7770    8.7230   23.5590 C.3   127  PRO127      0.1372
    137  C          0.2000    9.8710   22.7270 C.2   127  PRO127      0.2244
    138  O         -0.8850   10.3770   23.0100 O.2   127  PRO127     -0.2868
    139  CB         0.4260    7.3570   22.9670 C.3   127  PRO127      0.0268
    140  CG        -0.8030    6.9390   23.6860 C.3   127  PRO127      0.0207
    141  CD        -0.7510    7.5560   25.0620 C.3   127  PRO127      0.0892
@<TRIPOS>BOND
     1    60    59    2
     2    59    58    1
     3    58    57    1
     4    58    61    1
     5   137   138    2
     6   137   136    1
     7   139   136    1
     8   139   140    1
     9    61    62    1
    10    71    72    1
    11   136   135    1
    12   140   141    1
    13    72    73    1
    14    72    75    1
    15    62    63   ar
    16    62    64   ar
    17    76    75    1
    18    76    77    1
    19   135   141    1
    20    63    65   ar
    21    73    74    2
    22    67    64   ar
    23    67    69   ar
    24    64    66   ar
    25    79    77   am
    26    77    78    2
    27    65    66   ar
    28    69    70   ar
    29    66    68   ar
    30    45    46    2
    31    45    44    1
    32    49    51   ar
    33    49    48   ar
    34    23    22   ar
    35    51    52   ar
    36    44    47    1
    37    44    43    1
    38    70    68   ar
    39    48    47    1
    40    48    50   ar
    41    22    24   ar
    42    22    21    1
    43    80    81    1
    44   133   131   ar
    45   133   134   ar
    46    52    50   ar
    47    52    54   ar
    48   131   129   ar
    49    50    53   ar
    50    84    81    1
    51    84    85    1
    52    21    20    1
    53    54    56   ar
    54    87    85   ar
    55    87    89   ar
    56   126   127    2
    57   126   125    1
    58    81    82    1
    59   134   132   ar
    60   129   128    1
    61   129   130   ar
    62   128   125    1
    63    85    86   ar
    64    89    90   ar
    65   125   124    1
    66    53    55   ar
    67    83    82    2
    68    20    17    1
    69    56    55   ar
    70   132   130   ar
    71    86    88   ar
    72    90    88   ar
    73    90    91    1
    74    17    18    1
    75    17    16    1
    76    18    19    2
    77    41    40    1
    78    42    40    1
    79   120   121    1
    80   120   117    1
    81    40    39    1
    82    99    97    1
    83    39    36    1
    84    38    37    2
    85   121   123   ar
    86   121   122   ar
    87    97    96    1
    88    37    36    1
    89   118   119    2
    90   118   117    1
    91    92    93    1
    92    36    35    1
    93   117   116    1
    94    96    93    1
    95    96    98    1
    96    93    94    1
    97    35    27   am
    98    15    12    1
    99    28    27    2
   100    14    13    2
   101    94    95    2
   102    27    26    1
   103    32    34   ar
   104    32    30   ar
   105    10     9   ar
   106    10     8   ar
   107    13    12    1
   108    34    33   ar
   109   114   113    1
   110     9     7   ar
   111    12    11    1
   112    30    29    1
   113    30    31   ar
   114    26    29    1
   115    26    25    1
   116     8     6   ar
   117    33    31   ar
   118   113   115    1
   119   113   110    1
   120     7     6   ar
   121   112   111    2
   122   111   110    1
   123     6     5    1
   124     4     3    2
   125   110   109    1
   126   108   107    1
   127     3     2    1
   128     5     2    1
   129   107   106    1
   130   100   101    1
   131     1     2    1
   132   106   105    1
   133   105   104    1
   134   101   104    1
   135   101   102    1
   136   102   103    2
