@<TRIPOS>MOLECULE
tmp/2a4zA00.pdb
 161 151 0 0 0
SMALL
GASTEIGER

@<TRIPOS>ATOM
      1  N         47.1630   17.8740   39.9110 N.3   544  MET544     -0.1245
      2  CA        46.8070   18.8080   38.8600 C.3   544  MET544      0.1570
      3  C         46.0180   19.9810   39.3620 C.2   544  MET544      0.2261
      4  O         45.3560   19.8990   40.3880 O.2   544  MET544     -0.2867
      5  CB        46.0470   18.0910   37.7590 C.3   544  MET544      0.0387
      6  CG        46.9590   17.3570   36.8060 C.3   544  MET544      0.0595
      7  SD        46.0820   16.0740   35.9830 S.3   544  MET544     -0.1393
      8  CE        46.6390   14.6320   36.9640 C.3   544  MET544      0.0692
      9  N         43.0380   22.2860   39.4640 N.3   546  SER546     -0.1217
     10  CA        41.6190   22.2890   39.1160 C.3   546  SER546      0.1889
     11  C         40.6760   22.0160   40.2940 C.2   546  SER546      0.2288
     12  O         41.0810   21.4550   41.3110 O.2   546  SER546     -0.2866
     13  CB        41.3680   21.2580   38.0130 C.3   546  SER546      0.2089
     14  OG        42.1000   20.0680   38.2630 O.3   546  SER546     -0.2183
     15  N         38.7090   19.9080   40.5640 N.3   548  LYS548     -0.1245
     16  CA        38.8760   18.4840   40.7980 C.3   548  LYS548      0.1561
     17  C         40.3530   18.3920   41.1420 C.2   548  LYS548      0.2260
     18  O         41.1680   19.0920   40.5410 O.2   548  LYS548     -0.2867
     19  CB        38.6050   17.6930   39.5210 C.3   548  LYS548      0.0271
     20  CG        37.1670   17.7160   39.0370 C.3   548  LYS548      0.0035
     21  CD        36.2770   16.8300   39.8860 C.3   548  LYS548      0.0206
     22  CE        35.0290   16.3880   39.1190 C.3   548  LYS548      0.1093
     23  NZ        34.1400   17.5110   38.7000 N.3   548  LYS548     -0.1314
     24  N         42.7720   15.7660   40.8110 N.3   550  PRO550     -0.2116
     25  CA        43.3020   14.5090   40.2780 C.3   550  PRO550      0.1372
     26  C         44.7200   14.2800   40.7810 C.2   550  PRO550      0.2244
     27  O         45.3930   15.2190   41.2180 O.2   550  PRO550     -0.2868
     28  CB        43.2930   14.7390   38.7670 C.3   550  PRO550      0.0268
     29  CG        42.2460   15.7640   38.5710 C.3   550  PRO550      0.0207
     30  CD        42.4840   16.6990   39.7120 C.3   550  PRO550      0.0892
     31  N         48.4150   13.0730   39.7160 N.3   552  TRP552     -0.1241
     32  CA        49.3700   12.8010   38.6600 C.3   552  TRP552      0.1605
     33  C         50.4880   11.9360   39.2210 C.2   552  TRP552      0.2264
     34  O         51.4110   12.4490   39.8350 O.2   552  TRP552     -0.2867
     35  CB        49.9440   14.1240   38.1520 C.3   552  TRP552      0.0550
     36  CG        50.9670   13.9960   37.0910 C.ar  552  TRP552      0.0003
     37  CD1       52.2460   13.5470   37.2280 C.ar  552  TRP552      0.0946
     38  CD2       50.8090   14.3530   35.7200 C.ar  552  TRP552      0.0152
     39  NE1       52.9000   13.6090   36.0200 N.ar  552  TRP552     -0.2442
     40  CE2       52.0370   14.1000   35.0780 C.ar  552  TRP552      0.0810
     41  CE3       49.7470   14.8650   34.9690 C.ar  552  TRP552      0.0012
     42  CZ2       52.2300   14.3390   33.7300 C.ar  552  TRP552      0.0191
     43  CZ3       49.9410   15.1020   33.6280 C.ar  552  TRP552      0.0001
     44  CH2       51.1720   14.8390   33.0220 C.ar  552  TRP552      0.0015
     45  N         46.8690    9.0870   35.8090 N.3   571  ILE571     -0.1245
     46  CA        46.1090   10.1520   36.4480 C.3   571  ILE571      0.1561
     47  C         44.8670    9.6420   37.1580 C.2   571  ILE571      0.2260
     48  O         43.8720    9.3370   36.5210 O.2   571  ILE571     -0.2867
     49  CB        45.6550   11.2110   35.4350 C.3   571  ILE571      0.0252
     50  CG1       46.8610   11.9430   34.8680 C.3   571  ILE571      0.0019
     51  CG2       44.7320   12.2230   36.1000 C.3   571  ILE571      0.0019
     52  CD1       46.4740   13.0440   33.9590 C.3   571  ILE571      0.0001
     53  N         41.5380   10.0570   39.4100 N.3   573  LYS573     -0.1245
     54  CA        40.6150   11.1450   39.6700 C.3   573  LYS573      0.1561
     55  C         39.3180   10.7350   40.3390 C.2   573  LYS573      0.2260
     56  O         38.7850    9.6650   40.0520 O.2   573  LYS573     -0.2867
     57  CB        40.2900   11.8830   38.3700 C.3   573  LYS573      0.0271
     58  CG        39.4900   13.1570   38.6110 C.3   573  LYS573      0.0035
     59  CD        39.2690   13.9470   37.3470 C.3   573  LYS573      0.0206
     60  CE        38.3680   13.2050   36.3940 C.3   573  LYS573      0.1093
     61  NZ        38.0580   14.0400   35.2040 N.3   573  LYS573     -0.1314
     62  N         33.7080    8.5200   34.9280 N.3   578  LEU578     -0.1245
     63  CA        34.6040    8.0290   33.8830 C.3   578  LEU578      0.1561
     64  C         34.0610    6.8720   33.0540 C.2   578  LEU578      0.2260
     65  O         34.7800    6.3070   32.2500 O.2   578  LEU578     -0.2867
     66  CB        35.9070    7.5790   34.4940 C.3   578  LEU578      0.0270
     67  CG        36.8340    8.5670   35.1680 C.3   578  LEU578      0.0019
     68  CD1       37.9580    7.7680   35.9160 C.3   578  LEU578      0.0001
     69  CD2       37.3970    9.5250   34.1080 C.3   578  LEU578      0.0001
     70  N         33.2870    8.3270   29.6080 N.3   581  ASP581     -0.1239
     71  CA        34.4970    8.5710   28.8400 C.3   581  ASP581      0.1674
     72  C         34.9610    7.2850   28.1670 C.2   581  ASP581      0.2266
     73  O         35.3840    7.2960   27.0080 O.2   581  ASP581     -0.2867
     74  CB        35.6040    9.0680   29.7550 C.3   581  ASP581      0.1410
     75  CG        35.1630   10.2180   30.6170 C.2   581  ASP581      0.3668
     76  OD1       34.0740   10.1080   31.2400 O.co2 581  ASP581     -0.2456
     77  OD2       35.9100   11.2250   30.6730 O.co2 581  ASP581     -0.2456
     78  N         43.3650    7.8470   24.8930 N.3   607  TYR607     -0.1241
     79  CA        44.1570    7.4030   26.0260 C.3   607  TYR607      0.1605
     80  C         43.4040    6.3920   26.8570 C.2   607  TYR607      0.2264
     81  O         42.1780    6.3280   26.8150 O.2   607  TYR607     -0.2867
     82  CB        44.5200    8.6000   26.8860 C.3   607  TYR607      0.0534
     83  CG        43.3340    9.4930   27.1340 C.ar  607  TYR607     -0.0201
     84  CD1       42.4890    9.2760   28.2020 C.ar  607  TYR607     -0.0009
     85  CD2       43.0240   10.5220   26.2580 C.ar  607  TYR607     -0.0009
     86  CE1       41.3600   10.0600   28.3870 C.ar  607  TYR607      0.0417
     87  CE2       41.9080   11.2980   26.4360 C.ar  607  TYR607      0.0417
     88  CZ        41.0830   11.0640   27.4940 C.ar  607  TYR607      0.1957
     89  OH        39.9630   11.8170   27.6610 O.3   607  TYR607     -0.2866
     90  N         43.2430    7.1990   34.5660 N.3   619  ILE619     -0.1231
     91  CA        43.4330    7.7880   33.2430 C.3   619  ILE619      0.1692
     92  C         44.8920    7.7330   32.8080 C.2   619  ILE619      0.2592
     93  O         45.8060    7.8870   33.6110 O.2   619  ILE619     -0.2718
     94  CB        42.9900    9.2590   33.2300 C.3   619  ILE619      0.0266
     95  CG1       41.4670    9.3440   33.2760 C.3   619  ILE619      0.0019
     96  CG2       43.5540    9.9590   32.0200 C.3   619  ILE619      0.0020
     97  CD1       40.9530   10.7620   33.3210 C.3   619  ILE619      0.0001
     98  N         45.1080    7.5040   31.5240 N.am  620  GLU620     -0.1966
     99  CA        46.4590    7.4410   31.0000 C.3   620  GLU620      0.1733
    100  C         47.1040    8.8110   30.7930 C.2   620  GLU620      0.2616
    101  O         46.4560    9.7700   30.3520 O.2   620  GLU620     -0.2715
    102  CB        46.4610    6.6940   29.6800 C.3   620  GLU620      0.0429
    103  CG        47.7570    6.8280   28.9350 C.3   620  GLU620      0.1163
    104  CD        47.7730    5.9780   27.7060 C.2   620  GLU620      0.3649
    105  OE1       46.8680    6.1560   26.8670 O.co2 620  GLU620     -0.2457
    106  OE2       48.6800    5.1280   27.5860 O.co2 620  GLU620     -0.2457
    107  N         48.3850    8.8990   31.1250 N.am  621  ILE621     -0.1963
    108  CA        49.1210   10.1400   30.9450 C.3   621  ILE621      0.1727
    109  C         49.7760   10.1350   29.5700 C.2   621  ILE621      0.2616
    110  O         50.6580    9.3160   29.2910 O.2   621  ILE621     -0.2715
    111  CB        50.2220   10.3160   32.0080 C.3   621  ILE621      0.0290
    112  CG1       49.5920   10.7400   33.3370 C.3   621  ILE621      0.0022
    113  CG2       51.2250   11.3340   31.5370 C.3   621  ILE621      0.0023
    114  CD1       50.5640   10.9160   34.4780 C.3   621  ILE621      0.0001
    115  N         49.3210   11.0360   28.7060 N.am  622  VAL622     -0.1977
    116  CA        49.8760   11.1470   27.3670 C.3   622  VAL622      0.1596
    117  C         51.1320   12.0160   27.3940 C.2   622  VAL622      0.2287
    118  O         51.0590   13.2380   27.5630 O.2   622  VAL622     -0.2864
    119  CB        48.8550   11.7530   26.4030 C.3   622  VAL622      0.0276
    120  CG1       49.4770   11.9520   25.0270 C.3   622  VAL622      0.0022
    121  CG2       47.6510   10.8440   26.3250 C.3   622  VAL622      0.0022
    122  N         52.4060   16.3680   26.6050 N.3   625  ALA625     -0.1245
    123  CA        51.2460   17.1080   26.1360 C.3   625  ALA625      0.1562
    124  C         50.9530   18.3050   27.0400 C.2   625  ALA625      0.2260
    125  O         51.4440   18.3840   28.1720 O.2   625  ALA625     -0.2867
    126  CB        50.0480   16.1940   26.0680 C.3   625  ALA625      0.0290
    127  N         43.8320   19.1920   24.5690 N.3   693  MET693     -0.1245
    128  CA        45.2930   19.2190   24.5930 C.3   693  MET693      0.1570
    129  C         45.9730   18.9000   23.2580 C.2   693  MET693      0.2261
    130  O         45.3250   18.4910   22.3020 O.2   693  MET693     -0.2867
    131  CB        45.8000   18.2450   25.6700 C.3   693  MET693      0.0387
    132  CG        45.2160   18.5040   27.0650 C.3   693  MET693      0.0595
    133  SD        45.8960   17.4330   28.3580 S.3   693  MET693     -0.1393
    134  CE        47.5840   17.5080   28.0090 C.3   693  MET693      0.0692
    135  N         44.2780   16.5680   20.9920 N.3   701  PHE701     -0.1241
    136  CA        43.2540   15.6120   21.4250 C.3   701  PHE701      0.1605
    137  C         42.3920   16.1170   22.5680 C.2   701  PHE701      0.2264
    138  O         42.9010   16.7000   23.5220 O.2   701  PHE701     -0.2867
    139  CB        43.9080   14.2780   21.8290 C.3   701  PHE701      0.0534
    140  CG        44.9300   14.3950   22.9400 C.ar  701  PHE701     -0.0203
    141  CD1       44.5760   14.1810   24.2520 C.ar  701  PHE701     -0.0042
    142  CD2       46.2550   14.6910   22.6590 C.ar  701  PHE701     -0.0042
    143  CE1       45.5190   14.2530   25.2600 C.ar  701  PHE701     -0.0003
    144  CE2       47.1990   14.7650   23.6680 C.ar  701  PHE701     -0.0003
    145  CZ        46.8260   14.5430   24.9660 C.ar  701  PHE701     -0.0000
    146  N         39.6450   15.9450   25.8800 N.3   703  ILE703     -0.1231
    147  CA        39.6740   15.2330   27.1470 C.3   703  ILE703      0.1692
    148  C         38.4710   15.5750   28.0120 C.2   703  ILE703      0.2592
    149  O         37.6570   16.4180   27.6560 O.2   703  ILE703     -0.2718
    150  CB        40.9120   15.5480   27.9580 C.3   703  ILE703      0.0266
    151  CG1       40.8460   16.9930   28.4370 C.3   703  ILE703      0.0019
    152  CG2       42.1610   15.2670   27.1460 C.3   703  ILE703      0.0020
    153  CD1       42.0100   17.3750   29.3180 C.3   703  ILE703      0.0001
    154  N         38.3810   14.9170   29.1600 N.am  704  ASP704     -0.1974
    155  CA        37.2560   15.0960   30.0690 C.3   704  ASP704      0.1709
    156  C         35.9630   14.9470   29.2650 C.2   704  ASP704      0.2293
    157  O         35.4230   15.9170   28.7500 O.2   704  ASP704     -0.2864
    158  CB        37.3240   16.4620   30.7520 C.3   704  ASP704      0.1436
    159  CG        36.4490   16.5880   31.9770 C.2   704  ASP704      0.3671
    160  OD1       35.8100   15.6440   32.4150 O.co2 704  ASP704     -0.2456
    161  OD2       36.4890   17.6390   32.6210 O.co2 704  ASP704     -0.2456
@<TRIPOS>BOND
     1   135   136    1
     2   136   139    1
     3   136   137    1
     4   139   140    1
     5   130   129    2
     6   137   138    2
     7   142   140   ar
     8   142   144   ar
     9   140   141   ar
    10   129   128    1
    11   144   145   ar
    12   141   143   ar
    13   127   128    1
    14   128   131    1
    15    78    79    1
    16   145   143   ar
    17   120   119    1
    18   131   132    1
    19   146   147    1
    20    79    80    1
    21    79    82    1
    22   126   123    1
    23   123   122    1
    24   123   124    1
    25    85    87   ar
    26    85    83   ar
    27   121   119    1
    28   119   116    1
    29    87    88   ar
    30    81    80    2
    31   105   104   ar
    32    82    83    1
    33    73    72    2
    34   124   125    2
    35   132   133    1
    36    83    84   ar
    37   152   150    1
    38   147   150    1
    39   147   148    1
    40   116   117    1
    41   116   115    1
    42   117   118    2
    43    88    89    1
    44    88    86   ar
    45   106   104   ar
    46   149   148    2
    47   104   103    1
    48   150   151    1
    49   134   133    1
    50   148   154   am
    51    72    71    1
    52    84    86   ar
    53   151   153    1
    54   115   109   am
    55   157   156    2
    56    71    70    1
    57    71    74    1
    58   103   102    1
    59   154   155    1
    60   156   155    1
    61   110   109    2
    62   109   108    1
    63   102    99    1
    64    74    75    1
    65   155   158    1
    66   101   100    2
    67    75    77   ar
    68    75    76   ar
    69   158   159    1
    70   100    99    1
    71   100   107   am
    72   108   107    1
    73   108   111    1
    74    99    98    1
    75    98    92   am
    76   113   111    1
    77   159   160   ar
    78   159   161   ar
    79   111   112    1
    80    96    94    1
    81    65    64    2
    82    92    91    1
    83    92    93    2
    84    44    43   ar
    85    44    42   ar
    86    64    63    1
    87    94    91    1
    88    94    95    1
    89    91    90    1
    90    95    97    1
    91   112   114    1
    92    43    41   ar
    93    42    40   ar
    94    63    66    1
    95    63    62    1
    96    52    50    1
    97    69    67    1
    98    66    67    1
    99    50    49    1
   100    41    38   ar
   101    40    38   ar
   102    40    39   ar
   103    67    68    1
   104    61    60    1
   105    49    51    1
   106    49    46    1
   107    38    36   ar
   108    45    46    1
   109     7     6    1
   110     7     8    1
   111    39    37   ar
   112    60    59    1
   113    46    47    1
   114    48    47    2
   115     6     5    1
   116    36    37   ar
   117    36    35    1
   118    59    58    1
   119     5     2    1
   120    13    14    1
   121    13    10    1
   122    35    32    1
   123    57    58    1
   124    57    54    1
   125    29    28    1
   126    29    30    1
   127    32    33    1
   128    32    31    1
   129    23    22    1
   130    28    25    1
   131     2     3    1
   132     2     1    1
   133    20    19    1
   134    20    21    1
   135    10     9    1
   136    10    11    1
   137    22    21    1
   138    33    34    2
   139     3     4    2
   140    53    54    1
   141    19    16    1
   142    54    55    1
   143    30    24    1
   144    56    55    2
   145    25    26    1
   146    25    24    1
   147    11    12    2
   148    18    17    2
   149    15    16    1
   150    26    27    2
   151    16    17    1
