@<TRIPOS>MOLECULE
tmp/2a57E01.pdb
 106 105 0 0 0
SMALL
GASTEIGER

@<TRIPOS>ATOM
      1  N         74.5680   58.7670   26.4580 N.3    13  ALA13      -0.1245
      2  CA        73.6320   59.0070   25.3780 C.3    13  ALA13       0.1562
      3  C         72.8740   60.2800   25.6990 C.2    13  ALA13       0.2260
      4  O         73.0800   60.8820   26.7480 O.2    13  ALA13      -0.2867
      5  CB        72.6890   57.8370   25.2330 C.3    13  ALA13       0.0290
      6  N         69.2160   60.5760   25.1560 N.3    15  TYR15      -0.1227
      7  CA        67.7870   60.3690   25.3980 C.3    15  TYR15       0.1736
      8  C         67.5730   60.5160   26.9000 C.2    15  TYR15       0.2595
      9  O         68.4610   60.1810   27.6970 O.2    15  TYR15      -0.2718
     10  CB        67.3610   58.9590   25.0440 C.3    15  TYR15       0.0548
     11  CG        66.8270   58.7830   23.6710 C.ar   15  TYR15      -0.0200
     12  CD1       67.6560   58.9070   22.5640 C.ar   15  TYR15      -0.0009
     13  CD2       65.4890   58.4600   23.4690 C.ar   15  TYR15      -0.0009
     14  CE1       67.1690   58.7050   21.2740 C.ar   15  TYR15       0.0417
     15  CE2       64.9820   58.2610   22.1910 C.ar   15  TYR15       0.0417
     16  CZ        65.8340   58.3810   21.0930 C.ar   15  TYR15       0.1957
     17  OH        65.3700   58.1550   19.8120 O.3    15  TYR15      -0.2866
     18  N         66.3970   60.9930   27.2960 N.am   16  ASN16      -0.1974
     19  CA        66.0930   61.1520   28.7240 C.3    16  ASN16       0.1688
     20  C         67.1990   61.9400   29.4130 C.2    16  ASN16       0.2292
     21  O         67.6570   61.6040   30.5220 O.2    16  ASN16      -0.2864
     22  CB        65.9410   59.7790   29.3650 C.3    16  ASN16       0.1181
     23  CG        64.8920   58.9610   28.6840 C.2    16  ASN16       0.2629
     24  OD1       65.1760   57.9230   28.0910 O.2    16  ASN16      -0.2716
     25  ND2       63.6610   59.4370   28.7380 N.am   16  ASN16      -0.0877
     26  N         73.9670   59.6890   20.3650 N.3    48  PRO48      -0.2102
     27  CA        72.5140   59.8250   20.3040 C.3    48  PRO48       0.1504
     28  C         71.8060   58.9820   21.3830 C.2    48  PRO48       0.2576
     29  O         71.3190   59.5150   22.3840 O.2    48  PRO48      -0.2718
     30  CB        72.1890   59.3350   18.9010 C.3    48  PRO48       0.0282
     31  CG        73.3810   59.6770   18.1400 C.3    48  PRO48       0.0208
     32  CD        74.4970   59.2790   19.0570 C.3    48  PRO48       0.0893
     33  N         71.7560   57.6650   21.1800 N.am   49  GLY49      -0.1943
     34  CA        71.0970   56.7950   22.1380 C.3    49  GLY49       0.2014
     35  C         71.9460   55.6730   22.7040 C.2    49  GLY49       0.2640
     36  O         73.0930   55.4880   22.3060 O.2    49  GLY49      -0.2714
     37  N         71.3700   54.9170   23.6320 N.am   50  SER50      -0.1935
     38  CA        72.0590   53.8060   24.2720 C.3    50  SER50       0.2055
     39  C         72.6170   52.8020   23.2860 C.2    50  SER50       0.2643
     40  O         73.6490   52.1930   23.5330 O.2    50  SER50      -0.2714
     41  CB        71.1170   53.0820   25.2210 C.3    50  SER50       0.2130
     42  OG        70.8650   53.8570   26.3730 O.3    50  SER50      -0.2179
     43  N         71.9260   52.6130   22.1720 N.am   51  TRP51      -0.1959
     44  CA        72.3960   51.6710   21.1820 C.3    51  TRP51       0.1771
     45  C         73.8080   52.0150   20.7290 C.2    51  TRP51       0.2619
     46  O         74.6140   51.1250   20.4440 O.2    51  TRP51      -0.2715
     47  CB        71.4650   51.6690   19.9770 C.3    51  TRP51       0.0590
     48  CG        71.9580   50.8010   18.8700 C.ar   51  TRP51       0.0006
     49  CD1       72.5770   51.2070   17.7380 C.ar   51  TRP51       0.0946
     50  CD2       71.8630   49.3730   18.7850 C.ar   51  TRP51       0.0152
     51  NE1       72.8710   50.1250   16.9400 N.ar   51  TRP51      -0.2442
     52  CE2       72.4430   48.9860   17.5670 C.ar   51  TRP51       0.0810
     53  CE3       71.3400   48.3810   19.6230 C.ar   51  TRP51       0.0012
     54  CZ2       72.5180   47.6490   17.1640 C.ar   51  TRP51       0.0191
     55  CZ3       71.4180   47.0460   19.2150 C.ar   51  TRP51       0.0001
     56  CH2       72.0010   46.7010   18.0030 C.ar   51  TRP51       0.0015
     57  N         74.1060   53.3120   20.6670 N.am   52  GLU52      -0.1977
     58  CA        75.4110   53.7710   20.2130 C.3    52  GLU52       0.1602
     59  C         76.5220   53.7350   21.2640 C.2    52  GLU52       0.2287
     60  O         77.6960   53.8850   20.9250 O.2    52  GLU52      -0.2864
     61  CB        75.2920   55.1760   19.6210 C.3    52  GLU52       0.0415
     62  CG        74.5410   55.2570   18.2990 C.3    52  GLU52       0.1163
     63  CD        73.0390   55.1350   18.4410 C.2    52  GLU52       0.3649
     64  OE1       72.4820   55.7550   19.3590 O.co2  52  GLU52      -0.2457
     65  OE2       72.4090   54.4380   17.6240 O.co2  52  GLU52      -0.2457
     66  N         69.9870   55.7920   29.7030 N.3    74  VAL74      -0.1231
     67  CA        68.8090   55.2940   30.3830 C.3    74  VAL74       0.1692
     68  C         67.7350   54.8960   29.3700 C.2    74  VAL74       0.2592
     69  O         67.3460   55.6740   28.4880 O.2    74  VAL74      -0.2718
     70  CB        68.2500   56.2840   31.4750 C.3    74  VAL74       0.0266
     71  CG1       69.2620   57.3480   31.7860 C.3    74  VAL74       0.0020
     72  CG2       66.9230   56.8550   31.0640 C.3    74  VAL74       0.0020
     73  N         67.3210   53.6340   29.4750 N.am   75  LEU75      -0.1966
     74  CA        66.2970   53.0750   28.6140 C.3    75  LEU75       0.1728
     75  C         65.0200   52.9440   29.4230 C.2    75  LEU75       0.2616
     76  O         65.0310   52.4200   30.5470 O.2    75  LEU75      -0.2715
     77  CB        66.7310   51.7080   28.1070 C.3    75  LEU75       0.0311
     78  CG        67.8660   51.7420   27.0970 C.3    75  LEU75       0.0022
     79  CD1       68.6170   50.4340   27.1290 C.3    75  LEU75       0.0001
     80  CD2       67.3070   52.0050   25.7230 C.3    75  LEU75       0.0001
     81  N         63.9210   53.4250   28.8500 N.am   76  ILE76      -0.1977
     82  CA        62.6250   53.3640   29.5100 C.3    76  ILE76       0.1596
     83  C         61.6680   52.4760   28.7330 C.2    76  ILE76       0.2287
     84  O         61.5540   52.6150   27.5150 O.2    76  ILE76      -0.2864
     85  CB        61.9990   54.7640   29.6230 C.3    76  ILE76       0.0276
     86  CG1       62.9820   55.7110   30.3210 C.3    76  ILE76       0.0022
     87  CG2       60.7090   54.6890   30.3980 C.3    76  ILE76       0.0022
     88  CD1       62.4090   57.0590   30.6320 C.3    76  ILE76       0.0001
     89  N         60.8170   46.7780   21.9490 N.3    82  HIS82      -0.1241
     90  CA        62.0420   47.4780   21.6450 C.3    82  HIS82       0.1621
     91  C         62.9470   47.6120   22.8600 C.2    82  HIS82       0.2264
     92  O         64.1440   47.3670   22.7950 O.2    82  HIS82      -0.2867
     93  CB        61.6790   48.8520   21.1060 C.3    82  HIS82       0.0745
     94  CG        62.7860   49.5220   20.3600 C.ar   82  HIS82       0.0817
     95  ND1       63.5880   50.4900   20.9280 N.ar   82  HIS82      -0.2268
     96  CD2       63.2140   49.3720   19.0830 C.ar   82  HIS82       0.1154
     97  CE1       64.4610   50.9120   20.0300 C.ar   82  HIS82       0.1986
     98  NE2       64.2540   50.2500   18.9030 N.ar   82  HIS82      -0.2212
     99  N         66.8630   46.2370   22.8700 N.3    86  ILE86      -0.1245
    100  CA        67.9890   47.1670   22.9000 C.3    86  ILE86       0.1561
    101  C         68.8050   46.8770   24.1720 C.2    86  ILE86       0.2260
    102  O         70.0220   46.7350   24.1290 O.2    86  ILE86      -0.2867
    103  CB        67.5410   48.6470   23.0100 C.3    86  ILE86       0.0252
    104  CG1       66.5020   48.9810   21.9460 C.3    86  ILE86       0.0019
    105  CG2       68.7450   49.5650   22.8290 C.3    86  ILE86       0.0019
    106  CD1       67.0580   49.0050   20.5520 C.3    86  ILE86       0.0001
@<TRIPOS>BOND
     1    51    52   ar
     2    51    49   ar
     3    54    52   ar
     4    54    56   ar
     5    52    50   ar
     6    65    63   ar
     7    49    48   ar
     8    56    55   ar
     9    31    30    1
    10    31    32    1
    11    62    63    1
    12    62    61    1
    13    63    64   ar
    14    50    48   ar
    15    50    53   ar
    16    48    47    1
    17    30    27    1
    18    98    96   ar
    19    98    97   ar
    20    32    26    1
    21    96    94   ar
    22    55    53   ar
    23    61    58    1
    24    17    16    1
    25    47    44    1
    26    97    95   ar
    27    58    57    1
    28    58    59    1
    29    27    26    1
    30    27    28    1
    31    94    95   ar
    32    94    93    1
    33    46    45    2
    34   106   104    1
    35    57    45   am
    36    45    44    1
    37    60    59    2
    38    16    14   ar
    39    16    15   ar
    40    93    90    1
    41    33    28   am
    42    33    34    1
    43    44    43    1
    44    14    12   ar
    45    28    29    2
    46    90    89    1
    47    90    91    1
    48   104   103    1
    49    34    35    1
    50    43    39   am
    51    15    13   ar
    52    36    35    2
    53    12    11   ar
    54    35    37   am
    55    92    91    2
    56   105   103    1
    57    99   100    1
    58   100   103    1
    59   100   101    1
    60    39    40    2
    61    39    38    1
    62    13    11   ar
    63    37    38    1
    64    11    10    1
    65   102   101    2
    66    38    41    1
    67    10     7    1
    68     6     7    1
    69    41    42    1
    70     5     2    1
    71     2     3    1
    72     2     1    1
    73     7     8    1
    74     3     4    2
    75    80    78    1
    76     8    18   am
    77     8     9    2
    78    78    79    1
    79    78    77    1
    80    18    19    1
    81    84    83    2
    82    24    23    2
    83    77    74    1
    84    69    68    2
    85    74    75    1
    86    74    73    1
    87    23    25   am
    88    23    22    1
    89    19    22    1
    90    19    20    1
    91    83    82    1
    92    81    75   am
    93    81    82    1
    94    68    73   am
    95    68    67    1
    96    20    21    2
    97    75    76    2
    98    82    85    1
    99    85    86    1
   100    85    87    1
   101    66    67    1
   102    86    88    1
   103    67    70    1
   104    72    70    1
   105    70    71    1
