@<TRIPOS>MOLECULE
tmp/2a58E01.pdb
 113 111 0 0 0
SMALL
GASTEIGER

@<TRIPOS>ATOM
      1  N         74.8480   59.2360   26.6880 N.3    13  ALA13      -0.1245
      2  CA        73.8680   59.4330   25.6370 C.3    13  ALA13       0.1562
      3  C         73.1800   60.7600   25.9020 C.2    13  ALA13       0.2260
      4  O         73.4280   61.3940   26.9220 O.2    13  ALA13      -0.2867
      5  CB        72.8650   58.2970   25.6380 C.3    13  ALA13       0.0290
      6  N         69.5060   61.2420   25.3660 N.3    15  TYR15      -0.1227
      7  CA        68.0850   61.1770   25.6980 C.3    15  TYR15       0.1736
      8  C         67.9640   61.2200   27.2120 C.2    15  TYR15       0.2595
      9  O         68.7970   60.6490   27.9200 O.2    15  TYR15      -0.2718
     10  CB        67.4410   59.8970   25.1670 C.3    15  TYR15       0.0548
     11  CG        67.3770   59.8330   23.6600 C.ar   15  TYR15      -0.0200
     12  CD1       68.4950   59.4480   22.9050 C.ar   15  TYR15      -0.0009
     13  CD2       66.2100   60.1890   22.9750 C.ar   15  TYR15      -0.0009
     14  CE1       68.4530   59.4190   21.5010 C.ar   15  TYR15       0.0417
     15  CE2       66.1580   60.1680   21.5690 C.ar   15  TYR15       0.0417
     16  CZ        67.2830   59.7820   20.8430 C.ar   15  TYR15       0.1957
     17  OH        67.2420   59.7660   19.4670 O.3    15  TYR15      -0.2866
     18  N         66.9360   61.9060   27.7060 N.am   16  ASN16      -0.1974
     19  CA        66.7170   62.0280   29.1470 C.3    16  ASN16       0.1688
     20  C         67.8420   62.8060   29.7910 C.2    16  ASN16       0.2292
     21  O         68.4170   62.3730   30.7910 O.2    16  ASN16      -0.2864
     22  CB        66.6280   60.6480   29.7940 C.3    16  ASN16       0.1181
     23  CG        65.3610   59.9250   29.4260 C.2    16  ASN16       0.2629
     24  OD1       64.2920   60.2240   29.9660 O.2    16  ASN16      -0.2716
     25  ND2       65.4610   58.9770   28.4850 N.am   16  ASN16      -0.0877
     26  N         74.2410   60.1720   20.4070 N.3    48  PRO48      -0.2102
     27  CA        72.7950   60.3850   20.3510 C.3    48  PRO48       0.1504
     28  C         72.0380   59.6070   21.4250 C.2    48  PRO48       0.2576
     29  O         71.3420   60.2000   22.2560 O.2    48  PRO48      -0.2718
     30  CB        72.4280   59.9180   18.9460 C.3    48  PRO48       0.0282
     31  CG        73.6700   60.1510   18.1740 C.3    48  PRO48       0.0208
     32  CD        74.7490   59.6910   19.1150 C.3    48  PRO48       0.0893
     33  N         72.1750   58.2800   21.4060 N.am   49  GLY49      -0.1943
     34  CA        71.4840   57.4520   22.3790 C.3    49  GLY49       0.2014
     35  C         72.2880   56.2690   22.8850 C.2    49  GLY49       0.2640
     36  O         73.4220   56.0480   22.4590 O.2    49  GLY49      -0.2714
     37  N         71.6760   55.4990   23.7840 N.am   50  SER50      -0.1935
     38  CA        72.3010   54.3340   24.4010 C.3    50  SER50       0.2055
     39  C         72.8260   53.2920   23.4330 C.2    50  SER50       0.2643
     40  O         73.8170   52.6290   23.7120 O.2    50  SER50      -0.2714
     41  CB        71.3210   53.6750   25.3690 C.3    50  SER50       0.2130
     42  OG        71.0410   54.5430   26.4530 O.3    50  SER50      -0.2179
     43  N         72.1690   53.1360   22.2960 N.am   51  TRP51      -0.1959
     44  CA        72.6310   52.1570   21.3330 C.3    51  TRP51       0.1771
     45  C         74.0640   52.4470   20.8880 C.2    51  TRP51       0.2619
     46  O         74.8490   51.5160   20.6870 O.2    51  TRP51      -0.2715
     47  CB        71.7060   52.1280   20.1230 C.3    51  TRP51       0.0590
     48  CG        72.1870   51.2400   19.0220 C.ar   51  TRP51       0.0006
     49  CD1       72.8530   51.6240   17.8990 C.ar   51  TRP51       0.0946
     50  CD2       72.0970   49.8050   18.9650 C.ar   51  TRP51       0.0152
     51  NE1       73.1900   50.5220   17.1470 N.ar   51  TRP51      -0.2442
     52  CE2       72.7410   49.3940   17.7770 C.ar   51  TRP51       0.0810
     53  CE3       71.5370   48.8290   19.8070 C.ar   51  TRP51       0.0012
     54  CZ2       72.8460   48.0530   17.4070 C.ar   51  TRP51       0.0191
     55  CZ3       71.6420   47.4960   19.4390 C.ar   51  TRP51       0.0001
     56  CH2       72.2950   47.1200   18.2460 C.ar   51  TRP51       0.0015
     57  N         74.4070   53.7300   20.7520 N.am   52  GLU52      -0.1977
     58  CA        75.7440   54.1300   20.3070 C.3    52  GLU52       0.1602
     59  C         76.8000   54.1130   21.3940 C.2    52  GLU52       0.2287
     60  O         77.9650   54.3680   21.1270 O.2    52  GLU52      -0.2864
     61  CB        75.7230   55.5250   19.6870 C.3    52  GLU52       0.0415
     62  CG        74.9850   55.6390   18.3600 C.3    52  GLU52       0.1163
     63  CD        73.4770   55.6420   18.5220 C.2    52  GLU52       0.3649
     64  OE1       72.9630   56.3100   19.4460 O.co2  52  GLU52      -0.2457
     65  OE2       72.8090   54.9850   17.7130 O.co2  52  GLU52      -0.2457
     66  N         70.2700   56.2380   29.9050 N.3    74  VAL74      -0.1231
     67  CA        69.0830   55.7540   30.5890 C.3    74  VAL74       0.1692
     68  C         68.0340   55.2850   29.5880 C.2    74  VAL74       0.2592
     69  O         67.6870   55.9880   28.6430 O.2    74  VAL74      -0.2718
     70  CB        68.4800   56.8130   31.6050 C.3    74  VAL74       0.0266
     71  CG1       69.2570   58.1190   31.5470 C.3    74  VAL74       0.0020
     72  CG2       66.9950   57.0330   31.3420 C.3    74  VAL74       0.0020
     73  N         67.5750   54.0560   29.7890 N.am   75  LEU75      -0.1966
     74  CA        66.5580   53.4520   28.9440 C.3    75  LEU75       0.1728
     75  C         65.2730   53.3250   29.7650 C.2    75  LEU75       0.2616
     76  O         65.3010   52.8750   30.9120 O.2    75  LEU75      -0.2715
     77  CB        67.0260   52.0740   28.4730 C.3    75  LEU75       0.0311
     78  CG        68.1480   52.0840   27.4310 C.3    75  LEU75       0.0022
     79  CD1       68.8200   50.7180   27.3390 C.3    75  LEU75       0.0001
     80  CD2       67.5560   52.4940   26.0910 C.3    75  LEU75       0.0001
     81  N         64.1560   53.7380   29.1760 N.am   76  ILE76      -0.1977
     82  CA        62.8700   53.6720   29.8530 C.3    76  ILE76       0.1596
     83  C         61.8990   52.7630   29.1140 C.2    76  ILE76       0.2287
     84  O         61.7360   52.8820   27.9050 O.2    76  ILE76      -0.2864
     85  CB        62.2470   55.0720   29.9680 C.3    76  ILE76       0.0276
     86  CG1       63.2080   56.0030   30.7350 C.3    76  ILE76       0.0022
     87  CG2       60.8960   54.9750   30.6570 C.3    76  ILE76       0.0022
     88  CD1       62.7020   57.4300   30.9330 C.3    76  ILE76       0.0001
     89  N         56.5300   49.2840   23.1550 N.3    80  THR80      -0.1218
     90  CA        56.9740   48.1280   22.3860 C.3    80  THR80       0.1862
     91  C         58.0100   47.2930   23.1350 C.2    80  THR80       0.2287
     92  O         58.2750   47.5330   24.3080 O.2    80  THR80      -0.2866
     93  CB        57.5630   48.5650   21.0220 C.3    80  THR80       0.1770
     94  OG1       58.8710   49.1110   21.2210 O.3    80  THR80      -0.2211
     95  CG2       56.6790   49.6260   20.3710 C.3    80  THR80       0.0375
     96  N         61.0290   47.2140   22.2730 N.3    82  HIS82      -0.1241
     97  CA        62.2840   47.9110   22.0420 C.3    82  HIS82       0.1621
     98  C         63.1710   47.9520   23.2760 C.2    82  HIS82       0.2264
     99  O         64.3420   47.5600   23.2290 O.2    82  HIS82      -0.2867
    100  CB        61.9980   49.3340   21.5850 C.3    82  HIS82       0.0745
    101  CG        63.2300   50.1330   21.2900 C.ar   82  HIS82       0.0817
    102  ND1       63.9880   49.9470   20.1520 N.ar   82  HIS82      -0.2268
    103  CD2       63.8170   51.1410   21.9760 C.ar   82  HIS82       0.1154
    104  CE1       64.9860   50.8140   20.1490 C.ar   82  HIS82       0.1986
    105  NE2       64.9040   51.5490   21.2450 N.ar   82  HIS82      -0.2212
    106  N         67.0850   46.3420   23.2810 N.3    86  ILE86      -0.1245
    107  CA        68.1910   47.2960   23.2820 C.3    86  ILE86       0.1561
    108  C         68.9800   47.1940   24.5850 C.2    86  ILE86       0.2260
    109  O         70.2060   47.2140   24.5760 O.2    86  ILE86      -0.2867
    110  CB        67.6810   48.7520   23.1430 C.3    86  ILE86       0.0252
    111  CG1       66.7510   48.8390   21.9490 C.3    86  ILE86       0.0019
    112  CG2       68.8260   49.7160   22.9280 C.3    86  ILE86       0.0019
    113  CD1       67.3190   48.1850   20.6960 C.3    86  ILE86       0.0001
@<TRIPOS>BOND
     1    51    52   ar
     2    51    49   ar
     3    54    52   ar
     4    54    56   ar
     5    65    63   ar
     6    52    50   ar
     7    49    48   ar
     8    31    30    1
     9    31    32    1
    10    56    55   ar
    11    62    63    1
    12    62    61    1
    13    63    64   ar
    14    30    27    1
    15    50    48   ar
    16    50    53   ar
    17    48    47    1
    18    32    26    1
    19    55    53   ar
    20    17    16    1
    21    61    58    1
    22    47    44    1
    23   104   102   ar
    24   104   105   ar
    25   102   101   ar
    26    58    57    1
    27    58    59    1
    28    27    26    1
    29    27    28    1
    30    95    93    1
    31    46    45    2
    32   113   111    1
    33    57    45   am
    34    16    14   ar
    35    16    15   ar
    36    45    44    1
    37    93    94    1
    38    93    90    1
    39    60    59    2
    40   105   103   ar
    41   101   100    1
    42   101   103   ar
    43    44    43    1
    44    33    28   am
    45    33    34    1
    46    28    29    2
    47    14    12   ar
    48    15    13   ar
    49   100    97    1
    50   111   110    1
    51    97    96    1
    52    97    98    1
    53    43    39   am
    54    34    35    1
    55    90    91    1
    56    90    89    1
    57    36    35    2
    58    35    37   am
    59    12    11   ar
    60   112   110    1
    61    13    11   ar
    62    91    92    2
    63   110   107    1
    64    99    98    2
    65   106   107    1
    66   107   108    1
    67    39    40    2
    68    39    38    1
    69    11    10    1
    70    37    38    1
    71    38    41    1
    72   109   108    2
    73    10     7    1
    74     6     7    1
    75    41    42    1
    76     2     5    1
    77     2     3    1
    78     2     1    1
    79     7     8    1
    80     3     4    2
    81    80    78    1
    82     8    18   am
    83     8     9    2
    84    79    78    1
    85    78    77    1
    86    18    19    1
    87    84    83    2
    88    77    74    1
    89    25    23   am
    90    69    68    2
    91    74    75    1
    92    74    73    1
    93    83    82    1
    94    19    20    1
    95    19    22    1
    96    81    75   am
    97    81    82    1
    98    23    22    1
    99    23    24    2
   100    68    73   am
   101    68    67    1
   102    75    76    2
   103    20    21    2
   104    82    85    1
   105    66    67    1
   106    85    87    1
   107    85    86    1
   108    67    70    1
   109    86    88    1
   110    72    70    1
   111    71    70    1
