@<TRIPOS>MOLECULE
tmp/2a5cA01.pdb
 131 125 0 0 0
SMALL
GASTEIGER

@<TRIPOS>ATOM
      1  N         -3.2340   20.0670   18.5270 N.3    12  ASN12      -0.1240
      2  CA        -3.8740   18.8600   18.0370 C.3    12  ASN12       0.1653
      3  C         -5.2320   18.5100   18.6040 C.2    12  ASN12       0.2266
      4  O         -5.8530   19.2830   19.3560 O.2    12  ASN12      -0.2867
      5  CB        -2.9030   17.6660   18.0280 C.3    12  ASN12       0.1155
      6  CG        -2.5970   17.1210   19.4070 C.2    12  ASN12       0.2627
      7  OD1       -3.3630   17.2790   20.3680 O.2    12  ASN12      -0.2716
      8  ND2       -1.4730   16.4320   19.5070 N.am   12  ASN12      -0.0877
      9  N         -5.9960   16.2670   20.7740 N.3    14  LEU14      -0.1245
     10  CA        -5.9780   16.0520   22.2440 C.3    14  LEU14       0.1561
     11  C         -5.5520   17.3130   23.0150 C.2    14  LEU14       0.2260
     12  O         -5.5220   17.3130   24.2360 O.2    14  LEU14      -0.2867
     13  CB        -5.0950   14.8530   22.6960 C.3    14  LEU14       0.0270
     14  CG        -4.9380   13.5370   21.9180 C.3    14  LEU14       0.0019
     15  CD1       -3.6590   12.7780   22.3360 C.3    14  LEU14       0.0001
     16  CD2       -6.1780   12.6820   22.0370 C.3    14  LEU14       0.0001
     17  N         -2.6120   18.8950   22.8550 N.3    16  SER16      -0.1217
     18  CA        -1.1450   19.0340   22.8960 C.3    16  SER16       0.1889
     19  C         -0.7060   20.0780   21.8490 C.2    16  SER16       0.2288
     20  O         -1.3350   20.2060   20.8140 O.2    16  SER16      -0.2866
     21  CB        -0.4490   17.6880   22.6040 C.3    16  SER16       0.2089
     22  OG        -0.8660   16.6320   23.4650 O.3    16  SER16      -0.2183
     23  N          7.6380   19.9440   22.0450 N.3    33  TYR33      -0.1241
     24  CA         6.3630   19.2570   22.2110 C.3    33  TYR33       0.1605
     25  C          5.8240   19.3670   23.6410 C.2    33  TYR33       0.2264
     26  O          6.4760   18.8930   24.5680 O.2    33  TYR33      -0.2867
     27  CB         6.5200   17.7860   21.7930 C.3    33  TYR33       0.0534
     28  CG         5.2500   17.1420   21.2730 C.ar   33  TYR33      -0.0201
     29  CD1        4.2640   16.6970   22.1520 C.ar   33  TYR33      -0.0009
     30  CD2        5.0320   16.9890   19.9150 C.ar   33  TYR33      -0.0009
     31  CE1        3.0870   16.1420   21.6820 C.ar   33  TYR33       0.0417
     32  CE2        3.8760   16.4190   19.4390 C.ar   33  TYR33       0.0417
     33  CZ         2.9040   15.9980   20.3260 C.ar   33  TYR33       0.1957
     34  OH         1.7530   15.4210   19.8630 O.3    33  TYR33      -0.2866
     35  N          1.6850   18.9330   25.7130 N.3    35  THR35      -0.1203
     36  CA         1.8240   18.0340   26.8880 C.3    35  THR35       0.1994
     37  C          1.8470   18.5870   28.3430 C.2    35  THR35       0.2617
     38  O          2.9270   18.8920   28.8460 O.2    35  THR35      -0.2717
     39  CB         2.7380   16.7950   26.5910 C.3    35  THR35       0.1784
     40  OG1        2.0280   15.8860   25.7370 O.3    35  THR35      -0.2211
     41  CG2        3.0970   16.0390   27.8600 C.3    35  THR35       0.0376
     42  N          0.7200   18.7050   29.0750 N.am   36  ALA36      -0.1979
     43  CA        -0.5640   17.9430   29.0010 C.3    36  ALA36       0.1597
     44  C         -0.5420   16.7620   30.0260 C.2    36  ALA36       0.2287
     45  O         -0.3920   15.5840   29.6500 O.2    36  ALA36      -0.2864
     46  CB        -0.9940   17.4910   27.5160 C.3    36  ALA36       0.0319
     47  N         10.7320   11.9950   25.1620 N.3    70  TRP70      -0.1241
     48  CA        10.0110   12.4870   26.3560 C.3    70  TRP70       0.1605
     49  C         10.9360   12.8000   27.5190 C.2    70  TRP70       0.2264
     50  O         11.8830   12.0330   27.7920 O.2    70  TRP70      -0.2867
     51  CB         8.9200   11.5270   26.7760 C.3    70  TRP70       0.0550
     52  CG         7.9280   11.2530   25.6520 C.ar   70  TRP70       0.0003
     53  CD1        7.7610   10.0740   24.9840 C.ar   70  TRP70       0.0946
     54  CD2        6.9770   12.1860   25.0790 C.ar   70  TRP70       0.0152
     55  NE1        6.7770   10.2160   24.0540 N.ar   70  TRP70      -0.2442
     56  CE2        6.2830   11.4960   24.0750 C.ar   70  TRP70       0.0810
     57  CE3        6.6580   13.5450   25.3280 C.ar   70  TRP70       0.0012
     58  CZ2        5.2770   12.0950   23.2890 C.ar   70  TRP70       0.0191
     59  CZ3        5.6270   14.1620   24.5400 C.ar   70  TRP70       0.0001
     60  CH2        4.9550   13.4270   23.5400 C.ar   70  TRP70       0.0015
     61  N          9.7500   13.5700   30.7640 N.3    72  PHE72      -0.1227
     62  CA         9.1740   13.1470   32.0130 C.3    72  PHE72       0.1736
     63  C          9.0620   11.6130   32.0900 C.2    72  PHE72       0.2596
     64  O          8.4500   11.1010   33.0230 O.2    72  PHE72      -0.2718
     65  CB         7.7890   13.7670   32.1150 C.3    72  PHE72       0.0547
     66  CG         6.9420   13.5680   30.8790 C.ar   72  PHE72      -0.0202
     67  CD1        6.1660   12.4460   30.7280 C.ar   72  PHE72      -0.0042
     68  CD2        6.9320   14.5140   29.8690 C.ar   72  PHE72      -0.0042
     69  CE1        5.3950   12.2640   29.5810 C.ar   72  PHE72      -0.0003
     70  CE2        6.1640   14.3280   28.6970 C.ar   72  PHE72      -0.0003
     71  CZ         5.3970   13.2170   28.5650 C.ar   72  PHE72      -0.0000
     72  N          9.5910   10.8880   31.0980 N.am   73  SER73      -0.1952
     73  CA         9.5650    9.4110   31.1040 C.3    73  SER73       0.1924
     74  C         10.7210    8.7350   30.3210 C.2    73  SER73       0.2314
     75  O         11.5530    9.3920   29.6840 O.2    73  SER73      -0.2863
     76  CB         8.2260    8.8660   30.6350 C.3    73  SER73       0.2116
     77  OG         8.1590    8.8980   29.2400 O.3    73  SER73      -0.2180
     78  N         10.1170    6.9660   27.8520 N.3    75  SER75      -0.1217
     79  CA         9.4590    6.5640   26.5970 C.3    75  SER75       0.1889
     80  C          9.9030    7.3730   25.3950 C.2    75  SER75       0.2288
     81  O         10.3910    8.5000   25.5280 O.2    75  SER75      -0.2866
     82  CB         7.9410    6.6550   26.7330 C.3    75  SER75       0.2089
     83  OG         7.5230    5.9460   27.8900 O.3    75  SER75      -0.2183
     84  N          8.3370    8.5440   21.4360 N.3    77  THR77      -0.1218
     85  CA         7.2810    8.5030   20.4290 C.3    77  THR77       0.1862
     86  C          7.7900    8.9340   19.0430 C.2    77  THR77       0.2287
     87  O          8.5130    9.9120   18.9100 O.2    77  THR77      -0.2866
     88  CB         6.0920    9.3630   20.8290 C.3    77  THR77       0.1770
     89  OG1        5.6050    8.9240   22.0890 O.3    77  THR77      -0.2211
     90  CG2        4.9710    9.2470   19.8110 C.3    77  THR77       0.0375
     91  N          6.3360   10.0830   15.2330 N.3    79  PHE79      -0.1241
     92  CA         5.1870   10.4800   14.4470 C.3    79  PHE79       0.1605
     93  C          5.6060   10.4320   12.9890 C.2    79  PHE79       0.2264
     94  O          6.7480   10.8390   12.6260 O.2    79  PHE79      -0.2867
     95  CB         4.8010   11.9210   14.7670 C.3    79  PHE79       0.0534
     96  CG         4.2640   12.1470   16.1580 C.ar   79  PHE79      -0.0203
     97  CD1        5.1000   12.2000   17.2260 C.ar   79  PHE79      -0.0042
     98  CD2        2.9420   12.3870   16.3670 C.ar   79  PHE79      -0.0042
     99  CE1        4.6130   12.4360   18.4950 C.ar   79  PHE79      -0.0003
    100  CE2        2.4600   12.6490   17.6220 C.ar   79  PHE79      -0.0003
    101  CZ         3.2880   12.6640   18.6730 C.ar   79  PHE79      -0.0000
    102  N          1.3570    7.8000   14.9500 N.3    97  TRP97      -0.1241
    103  CA         2.4570    7.6850   15.8700 C.3    97  TRP97       0.1605
    104  C          2.5810    6.2940   16.4400 C.2    97  TRP97       0.2264
    105  O          1.6030    5.5550   16.4530 O.2    97  TRP97      -0.2867
    106  CB         2.3340    8.7090   17.0110 C.3    97  TRP97       0.0550
    107  CG         1.0470    8.7400   17.7280 C.ar   97  TRP97       0.0003
    108  CD1        0.0280    9.6310   17.5330 C.ar   97  TRP97       0.0946
    109  CD2        0.6100    7.8600   18.7950 C.ar   97  TRP97       0.0152
    110  NE1       -1.0090    9.3640   18.3940 N.ar   97  TRP97      -0.2442
    111  CE2       -0.6930    8.2920   19.1780 C.ar   97  TRP97       0.0810
    112  CE3        1.1910    6.7490   19.4590 C.ar   97  TRP97       0.0012
    113  CZ2       -1.4320    7.6620   20.1890 C.ar   97  TRP97       0.0191
    114  CZ3        0.4540    6.1120   20.4660 C.ar   97  TRP97       0.0001
    115  CH2       -0.8390    6.5740   20.8330 C.ar   97  TRP97       0.0015
    116  N          4.1990    4.8690   20.1610 N.3    99  LEU99      -0.1245
    117  CA         4.6880    5.2670   21.4790 C.3    99  LEU99       0.1561
    118  C          5.3200    4.0330   22.0610 C.2    99  LEU99       0.2260
    119  O          4.6350    3.0510   22.3330 O.2    99  LEU99      -0.2867
    120  CB         3.5430    5.7440   22.3630 C.3    99  LEU99       0.0270
    121  CG         3.5990    5.8170   23.9230 C.3    99  LEU99       0.0019
    122  CD1        4.7200    6.6610   24.4900 C.3    99  LEU99       0.0001
    123  CD2        2.2100    6.3410   24.5370 C.3    99  LEU99       0.0001
    124  N         -2.7440   11.5560   15.2480 N.3   118  ASN118     -0.1240
    125  CA        -2.9410   12.9480   15.6120 C.3   118  ASN118      0.1653
    126  C         -3.1680   13.7730   14.3870 C.2   118  ASN118      0.2266
    127  O         -2.4360   13.6790   13.4020 O.2   118  ASN118     -0.2867
    128  CB        -1.7610   13.5270   16.4330 C.3   118  ASN118      0.1155
    129  CG        -1.9050   13.2780   17.9300 C.2   118  ASN118      0.2627
    130  OD1       -1.0310   12.8370   18.5520 O.2   118  ASN118     -0.2716
    131  ND2       -3.0080   13.5010   18.4570 N.am  118  ASN118     -0.0877
@<TRIPOS>BOND
     1    94    93    2
     2    93    92    1
     3   127   126    2
     4   126   125    1
     5    92    95    1
     6    92    91    1
     7    95    96    1
     8   102   103    1
     9   124   125    1
    10   125   128    1
    11   103   104    1
    12   103   106    1
    13    96    98   ar
    14    96    97   ar
    15    98   100   ar
    16   128   129    1
    17   104   105    2
    18   106   107    1
    19    97    99   ar
    20   108   107   ar
    21   108   110   ar
    22   100   101   ar
    23   107   109   ar
    24   129   131   am
    25   129   130    2
    26     5     2    1
    27     5     6    1
    28     2     1    1
    29     2     3    1
    30   110   111   ar
    31    99   101   ar
    32     3     4    2
    33   109   111   ar
    34   109   112   ar
    35    87    86    2
    36    86    85    1
    37   111   113   ar
    38     6     8   am
    39     6     7    2
    40    32    30   ar
    41    32    33   ar
    42   112   114   ar
    43    90    88    1
    44    34    33    1
    45    30    28   ar
    46   116   117    1
    47   113   115   ar
    48    33    31   ar
    49    85    88    1
    50    85    84    1
    51   114   115   ar
    52     9    10    1
    53    20    19    2
    54    88    89    1
    55    28    27    1
    56    28    29   ar
    57   117   118    1
    58   117   120    1
    59    31    29   ar
    60    27    24    1
    61    19    18    1
    62    14    16    1
    63    14    15    1
    64    14    13    1
    65    23    24    1
    66   118   119    2
    67    24    25    1
    68    10    13    1
    69    10    11    1
    70   120   121    1
    71    21    18    1
    72    21    22    1
    73    17    18    1
    74    11    12    2
    75    58    60   ar
    76    58    56   ar
    77    60    59   ar
    78    25    26    2
    79   121   122    1
    80   121   123    1
    81    55    56   ar
    82    55    53   ar
    83    56    54   ar
    84    59    57   ar
    85    53    52   ar
    86    54    57   ar
    87    54    52   ar
    88    47    48    1
    89    80    81    2
    90    80    79    1
    91    52    51    1
    92    35    36    1
    93    40    39    1
    94    48    51    1
    95    48    49    1
    96    39    36    1
    97    39    41    1
    98    79    82    1
    99    79    78    1
   100    82    83    1
   101    36    37    1
   102    46    43    1
   103    49    50    2
   104    37    38    2
   105    37    42   am
   106    71    70   ar
   107    71    69   ar
   108    70    68   ar
   109    43    42    1
   110    43    44    1
   111    77    76    1
   112    69    67   ar
   113    45    44    2
   114    75    74    2
   115    68    66   ar
   116    74    73    1
   117    76    73    1
   118    67    66   ar
   119    61    62    1
   120    66    65    1
   121    72    73    1
   122    72    63   am
   123    62    63    1
   124    62    65    1
   125    63    64    2
