@<TRIPOS>MOLECULE
tmp/2a5fB00.pdb
 186 177 0 0 0
SMALL
GASTEIGER

@<TRIPOS>ATOM
      1  N         25.9170   56.5180   41.2170 N.3     4  TYR4       -0.1227
      2  CA        26.6500   56.4830   42.4670 C.3     4  TYR4        0.1736
      3  C         25.6940   56.5290   43.6430 C.2     4  TYR4        0.2595
      4  O         24.8740   57.4190   43.7240 O.2     4  TYR4       -0.2718
      5  CB        27.5910   57.6940   42.5090 C.3     4  TYR4        0.0548
      6  CG        28.4460   57.7660   41.3040 C.ar    4  TYR4       -0.0200
      7  CD1       27.9710   58.3030   40.1500 C.ar    4  TYR4       -0.0009
      8  CD2       29.7360   57.2220   41.2960 C.ar    4  TYR4       -0.0009
      9  CE1       28.7340   58.3350   39.0110 C.ar    4  TYR4        0.0417
     10  CE2       30.5030   57.2250   40.1400 C.ar    4  TYR4        0.0417
     11  CZ        29.9990   57.7850   38.9990 C.ar    4  TYR4        0.1957
     12  OH        30.7640   57.8480   37.8200 O.3     4  TYR4       -0.2866
     13  N         25.8020   55.5820   44.5480 N.am    5  ARG5       -0.1966
     14  CA        24.9480   55.5490   45.7280 C.3     5  ARG5        0.1729
     15  C         25.8150   55.5220   46.9650 C.2     5  ARG5        0.2616
     16  O         26.6560   54.6080   47.1210 O.2     5  ARG5       -0.2715
     17  CB        24.0210   54.3330   45.7320 C.3     5  ARG5        0.0348
     18  CG        23.3130   54.1400   47.0420 C.3     5  ARG5        0.0492
     19  CD        22.2670   53.0930   47.0480 C.3     5  ARG5        0.2205
     20  NE        21.8210   52.9090   48.4240 N.pl3   5  ARG5       -0.0865
     21  CZ        20.8710   53.6180   49.0260 C.cat   5  ARG5        0.5346
     22  NH1       20.1580   54.5060   48.3730 N.pl3   5  ARG5        0.1354
     23  NH2       20.6240   53.4100   50.3000 N.pl3   5  ARG5        0.1354
     24  N         25.6290   56.5340   47.8160 N.am    6  ALA6       -0.1963
     25  CA        26.2020   56.5370   49.1630 C.3     6  ALA6        0.1728
     26  C         25.3910   55.6350   50.0560 C.2     6  ALA6        0.2616
     27  O         24.1710   55.7240   50.1070 O.2     6  ALA6       -0.2715
     28  CB        26.2250   57.9650   49.7290 C.3     6  ALA6        0.0334
     29  N         26.0600   54.7860   50.7970 N.am    7  ASP7       -0.1957
     30  CA        25.4030   53.8130   51.6560 C.3     7  ASP7        0.1840
     31  C         26.3660   53.4560   52.7760 C.2     7  ASP7        0.2623
     32  O         27.5750   53.3150   52.5430 O.2     7  ASP7       -0.2715
     33  CB        25.0240   52.5620   50.8210 C.3     7  ASP7        0.1450
     34  CG        23.9220   51.6830   51.4940 C.2     7  ASP7        0.3671
     35  OD1       24.1940   51.0060   52.5410 O.co2   7  ASP7       -0.2456
     36  OD2       22.7880   51.6950   50.9500 O.co2   7  ASP7       -0.2456
     37  N         25.8420   53.2990   53.9840 N.am    8  SER8       -0.1936
     38  CA        26.6590   52.9680   55.1600 C.3     8  SER8        0.2055
     39  C         26.9530   51.4660   55.2910 C.2     8  SER8        0.2642
     40  O         27.8600   51.0790   56.0150 O.2     8  SER8       -0.2714
     41  CB        26.0020   53.4720   56.4330 C.3     8  SER8        0.2130
     42  OG        24.8570   52.7300   56.7970 O.3     8  SER8       -0.2179
     43  N         26.2490   50.6290   54.5330 N.am    9  ARG9       -0.1977
     44  CA        26.5110   49.1870   54.5880 C.3     9  ARG9        0.1597
     45  C         27.7490   48.7710   53.7790 C.2     9  ARG9        0.2287
     46  O         27.8920   49.1430   52.6160 O.2     9  ARG9       -0.2864
     47  CB        25.2760   48.3920   54.1400 C.3     9  ARG9        0.0334
     48  CG        24.0790   48.6160   55.0410 C.3     9  ARG9        0.0492
     49  CD        22.8060   48.0840   54.3940 C.3     9  ARG9        0.2205
     50  NE        22.4960   48.7810   53.1570 N.pl3   9  ARG9       -0.0865
     51  CZ        21.6400   48.3590   52.2480 C.cat   9  ARG9        0.5346
     52  NH1       20.9800   47.2170   52.4230 N.pl3   9  ARG9        0.1354
     53  NH2       21.4260   49.0820   51.1770 N.pl3   9  ARG9        0.1354
     54  N         28.3290   42.9670   53.3450 N.3    13  GLU13      -0.1245
     55  CA        26.9190   42.9290   53.6790 C.3    13  GLU13       0.1567
     56  C         26.0710   43.0990   52.4300 C.2    13  GLU13       0.2260
     57  O         25.0480   42.4410   52.2680 O.2    13  GLU13      -0.2867
     58  CB        26.5560   43.9840   54.7140 C.3    13  GLU13       0.0388
     59  CG        25.0810   44.0650   54.9750 C.3    13  GLU13       0.1160
     60  CD        24.7270   45.0670   56.0650 C.2    13  GLU13       0.3649
     61  OE1       25.6460   45.6100   56.7030 O.co2  13  GLU13      -0.2457
     62  OE2       23.5190   45.3040   56.3010 O.co2  13  GLU13      -0.2457
     63  N         18.9780   46.4180   47.9600 N.3    21  MET21      -0.1231
     64  CA        17.5530   46.0920   47.8850 C.3    21  MET21       0.1687
     65  C         16.7030   47.1830   48.5270 C.2    21  MET21       0.2434
     66  O         17.1500   47.8540   49.4630 O.2    21  MET21      -0.2733
     67  CB        17.2850   44.7120   48.5300 C.3    21  MET21       0.0400
     68  CG        17.9100   43.5260   47.7450 C.3    21  MET21       0.0596
     69  SD        17.3890   43.4070   45.9680 S.3    21  MET21      -0.1393
     70  CE        18.9580   43.4090   45.1180 C.3    21  MET21       0.0692
     71  N         15.4700   47.3630   48.0270 N.am   22  PRO22      -0.2718
     72  CA        14.6160   48.3840   48.5950 C.3    22  PRO22       0.1535
     73  C         14.1820   47.9940   49.9960 C.2    22  PRO22       0.2598
     74  O         14.1280   46.7920   50.3020 O.2    22  PRO22      -0.2715
     75  CB        13.4440   48.4460   47.6350 C.3    22  PRO22       0.0310
     76  CG        13.4830   47.1790   46.8690 C.3    22  PRO22       0.0237
     77  CD        14.8440   46.6350   46.9180 C.3    22  PRO22       0.0939
     78  N         13.8650   48.9900   50.8210 N.am   23  ARG23      -0.1978
     79  CA        13.3340   48.7570   52.1730 C.3    23  ARG23       0.1597
     80  C         12.0640   47.9370   52.1590 C.2    23  ARG23       0.2287
     81  O         11.8450   47.0890   53.0240 O.2    23  ARG23      -0.2864
     82  CB        12.9920   50.0690   52.8310 C.3    23  ARG23       0.0334
     83  CG        14.1580   50.9220   53.0780 C.3    23  ARG23       0.0492
     84  CD        13.7320   51.9860   54.0130 C.3    23  ARG23       0.2205
     85  NE        14.8600   52.7830   54.4730 N.pl3  23  ARG23      -0.0865
     86  CZ        15.7180   52.3950   55.4010 C.cat  23  ARG23       0.5346
     87  NH1       16.6820   53.2110   55.7790 N.pl3  23  ARG23       0.1354
     88  NH2       15.6090   51.1960   55.9630 N.pl3  23  ARG23       0.1354
     89  N         12.2220   43.8890   52.5500 N.3    26  SER26      -0.1217
     90  CA        12.2860   43.3480   53.9100 C.3    26  SER26       0.1889
     91  C         10.9500   43.4260   54.5900 C.2    26  SER26       0.2288
     92  O         10.5810   42.5410   55.3380 O.2    26  SER26      -0.2866
     93  CB        13.2800   44.1500   54.7460 C.3    26  SER26       0.2089
     94  OG        14.4230   44.4500   53.9780 O.3    26  SER26      -0.2183
     95  N          7.9050   57.8100   47.0100 N.3    42  HIS42      -0.1226
     96  CA         9.3200   57.6330   47.2460 C.3    42  HIS42       0.1752
     97  C         10.0250   58.9940   47.3820 C.2    42  HIS42       0.2595
     98  O         10.8220   59.2040   48.3100 O.2    42  HIS42      -0.2718
     99  CB         9.9120   56.8050   46.1010 C.3    42  HIS42       0.0759
    100  CG        11.3970   56.8810   45.9960 C.ar   42  HIS42       0.0818
    101  ND1       12.2450   56.2480   46.8890 N.ar   42  HIS42      -0.2268
    102  CD2       12.1890   57.4400   45.0570 C.ar   42  HIS42       0.1154
    103  CE1       13.4930   56.4670   46.5240 C.ar   42  HIS42       0.1986
    104  NE2       13.4840   57.1970   45.4230 N.ar   42  HIS42      -0.2212
    105  N          9.7120   59.9230   46.4720 N.am   43  ALA43      -0.1980
    106  CA        10.3140   61.2290   46.4600 C.3    43  ALA43       0.1597
    107  C          9.7980   62.1190   47.6180 C.2    43  ALA43       0.2287
    108  O         10.5580   62.8730   48.2130 O.2    43  ALA43      -0.2864
    109  CB        10.0740   61.8950   45.1230 C.3    43  ALA43       0.0319
    110  N         12.1130   58.2970   54.8820 N.3    51  VAL51      -0.1245
    111  CA        11.9350   57.1970   53.9160 C.3    51  VAL51       0.1561
    112  C         10.9040   56.1650   54.3920 C.2    51  VAL51       0.2260
    113  O         10.9500   55.6830   55.5330 O.2    51  VAL51      -0.2867
    114  CB        13.2730   56.4770   53.5990 C.3    51  VAL51       0.0252
    115  CG1       13.0650   55.3570   52.5500 C.3    51  VAL51       0.0019
    116  CG2       14.3170   57.4990   53.1110 C.3    51  VAL51       0.0019
    117  N         15.3200   52.2340   45.2640 N.3    58  VAL58      -0.1231
    118  CA        16.6290   52.5600   45.8240 C.3    58  VAL58       0.1692
    119  C         17.2350   53.7790   45.0990 C.2    58  VAL58       0.2593
    120  O         17.4530   53.7770   43.8700 O.2    58  VAL58      -0.2718
    121  CB        17.6070   51.3480   45.7050 C.3    58  VAL58       0.0266
    122  CG1       19.0040   51.7130   46.1830 C.3    58  VAL58       0.0020
    123  CG2       17.1190   50.1810   46.5180 C.3    58  VAL58       0.0020
    124  N         17.5560   54.8200   45.8680 N.am   59  SER59      -0.1938
    125  CA        18.0580   56.0620   45.3140 C.3    59  SER59       0.2055
    126  C         19.5590   55.9950   44.9260 C.2    59  SER59       0.2644
    127  O         20.3390   55.3560   45.6010 O.2    59  SER59      -0.2714
    128  CB        17.8990   57.1800   46.3510 C.3    59  SER59       0.2130
    129  OG        16.5680   57.4970   46.6120 O.3    59  SER59      -0.2179
    130  N         19.9110   56.6550   43.8370 N.am   60  THR60      -0.1936
    131  CA        21.2960   56.8340   43.3900 C.3    60  THR60       0.2028
    132  C         21.4650   58.2740   42.8620 C.2    60  THR60       0.2642
    133  O         20.4950   58.9360   42.4720 O.2    60  THR60      -0.2714
    134  CB        21.7080   55.8100   42.2250 C.3    60  THR60       0.1808
    135  OG1       21.2220   56.2710   40.9640 O.3    60  THR60      -0.2208
    136  CG2       21.2150   54.3760   42.4490 C.3    60  THR60       0.0379
    137  N         22.7150   58.7310   42.7990 N.am   61  SER61      -0.1949
    138  CA        23.0690   59.9970   42.2030 C.3    61  SER61       0.1924
    139  C         23.6960   59.8290   40.8170 C.2    61  SER61       0.2314
    140  O         24.2480   58.7920   40.4800 O.2    61  SER61      -0.2863
    141  CB        24.0770   60.7710   43.0910 C.3    61  SER61       0.2116
    142  OG        23.7030   60.7100   44.4590 O.3    61  SER61      -0.2180
    143  N         26.9040   62.1690   45.0460 N.3    67  ALA67      -0.1245
    144  CA        26.8110   61.0900   46.0250 C.3    67  ALA67       0.1562
    145  C         27.5780   61.3910   47.2830 C.2    67  ALA67       0.2260
    146  O         27.1660   61.0090   48.3690 O.2    67  ALA67      -0.2867
    147  CB        27.2190   59.7250   45.4550 C.3    67  ALA67       0.0290
    148  N         25.5560   63.9180   49.3770 N.3    70  VAL70      -0.1245
    149  CA        24.5690   63.1140   50.0830 C.3    70  VAL70       0.1561
    150  C         25.1640   62.3530   51.2620 C.2    70  VAL70       0.2260
    151  O         24.6080   62.3680   52.3440 O.2    70  VAL70      -0.2867
    152  CB        23.9140   62.0790   49.1090 C.3    70  VAL70       0.0252
    153  CG1       23.0620   61.0640   49.8740 C.3    70  VAL70       0.0019
    154  CG2       23.0980   62.8000   48.0910 C.3    70  VAL70       0.0019
    155  N         23.3490   62.8330   54.7520 N.3    74  ILE74      -0.1231
    156  CA        22.5740   61.7420   55.2800 C.3    74  ILE74       0.1692
    157  C         23.4440   60.8660   56.1630 C.2    74  ILE74       0.2591
    158  O         23.0010   60.3900   57.2450 O.2    74  ILE74      -0.2718
    159  CB        21.9500   60.9500   54.0760 C.3    74  ILE74       0.0266
    160  CG1       20.7900   61.7730   53.5140 C.3    74  ILE74       0.0019
    161  CG2       21.4820   59.5630   54.4840 C.3    74  ILE74       0.0020
    162  CD1       20.4250   61.4200   52.0970 C.3    74  ILE74       0.0001
    163  N         24.7040   60.6570   55.7570 N.am   75  LEU75      -0.1980
    164  CA        25.5460   59.7130   56.4570 C.3    75  LEU75       0.1596
    165  C         26.6060   60.3940   57.3240 C.2    75  LEU75       0.2287
    166  O         27.6210   59.7990   57.6450 O.2    75  LEU75      -0.2864
    167  CB        26.1840   58.7030   55.4890 C.3    75  LEU75       0.0297
    168  CG        25.1460   57.9130   54.6710 C.3    75  LEU75       0.0022
    169  CD1       25.7620   57.0540   53.5580 C.3    75  LEU75       0.0001
    170  CD2       24.3420   57.0620   55.6320 C.3    75  LEU75       0.0001
    171  N         17.3220   66.8030   45.2080 N.3   108  ASP108     -0.1239
    172  CA        17.8250   65.4420   45.4010 C.3   108  ASP108      0.1674
    173  C         18.5190   64.9350   44.1410 C.2   108  ASP108      0.2266
    174  O         19.4150   64.1300   44.2490 O.2   108  ASP108     -0.2867
    175  CB        16.7090   64.4590   45.7850 C.3   108  ASP108      0.1410
    176  CG        16.1060   64.7170   47.1680 C.2   108  ASP108      0.3668
    177  OD1       16.8320   65.2210   48.0490 O.co2 108  ASP108     -0.2456
    178  OD2       14.8910   64.3810   47.3610 O.co2 108  ASP108     -0.2456
    179  N         17.7170   62.6400   41.8660 N.3   110  ASP110     -0.1239
    180  CA        17.7680   61.2280   42.1960 C.3   110  ASP110      0.1674
    181  C         17.5200   60.4200   40.9030 C.2   110  ASP110      0.2266
    182  O         16.6210   60.7380   40.1200 O.2   110  ASP110     -0.2867
    183  CB        16.7200   61.0080   43.3060 C.3   110  ASP110      0.1410
    184  CG        16.6020   59.5770   43.8120 C.2   110  ASP110      0.3668
    185  OD1       15.9020   59.3730   44.8530 O.co2 110  ASP110     -0.2456
    186  OD2       17.1420   58.6350   43.2010 O.co2 110  ASP110     -0.2456
@<TRIPOS>BOND
     1    12    11    1
     2    11     9   ar
     3    11    10   ar
     4     9     7   ar
     5   182   181    2
     6    10     8   ar
     7     7     6   ar
     8   140   139    2
     9   139   138    1
    10   181   180    1
    11   135   134    1
    12     1     2    1
    13     8     6   ar
    14     6     5    1
    15   179   180    1
    16   180   183    1
    17   138   137    1
    18   138   141    1
    19   134   136    1
    20   134   131    1
    21     2     5    1
    22     2     3    1
    23   133   132    2
    24   137   132   am
    25   132   131    1
    26   141   142    1
    27   186   184   ar
    28   183   184    1
    29   131   130    1
    30     3     4    2
    31     3    13   am
    32   184   185   ar
    33   130   126   am
    34   120   119    2
    35   173   174    2
    36   173   172    1
    37    13    14    1
    38   126   125    1
    39   126   127    2
    40   143   144    1
    41   102   104   ar
    42   102   100   ar
    43   119   118    1
    44   119   124   am
    45    70    69    1
    46   109   106    1
    47   171   172    1
    48   117   118    1
    49   125   124    1
    50   125   128    1
    51   172   175    1
    52   104   103   ar
    53   147   144    1
    54   121   118    1
    55   121   122    1
    56   121   123    1
    57    14    17    1
    58    14    15    1
    59    17    18    1
    60   175   176    1
    61    69    68    1
    62   100    99    1
    63   100   101   ar
    64   144   145    1
    65    99    96    1
    66   128   129    1
    67   106   105    1
    68   106   107    1
    69   105    97   am
    70   103   101   ar
    71    76    77    1
    72    76    75    1
    73    77    71    1
    74    15    16    2
    75    15    24   am
    76    95    96    1
    77    18    19    1
    78    19    20    1
    79   176   178   ar
    80   176   177   ar
    81    96    97    1
    82   145   146    2
    83    97    98    2
    84   107   108    2
    85    75    72    1
    86    68    67    1
    87    24    25    1
    88    64    63    1
    89    64    65    1
    90    64    67    1
    91    71    65   am
    92    71    72    1
    93   154   152    1
    94    22    21    1
    95    20    21    2
    96    65    66    2
    97    72    73    1
    98    21    23    1
    99   152   153    1
   100   152   149    1
   101    25    28    1
   102    25    26    1
   103   148   149    1
   104    73    74    2
   105    73    78   am
   106    26    27    2
   107    26    29   am
   108   149   150    1
   109    29    30    1
   110    33    34    1
   111    33    30    1
   112    78    79    1
   113    36    34   ar
   114    53    51    1
   115   150   151    2
   116    34    35   ar
   117    30    31    1
   118   162   160    1
   119    80    79    1
   120    80    81    2
   121    79    82    1
   122    51    52    1
   123    51    50    2
   124    57    56    2
   125    56    55    1
   126    32    31    2
   127   115   114    1
   128    89    90    1
   129    46    45    2
   130    31    37   am
   131    82    83    1
   132    83    84    1
   133   116   114    1
   134    50    49    1
   135    54    55    1
   136   160   159    1
   137   169   168    1
   138   114   111    1
   139    55    58    1
   140    45    44    1
   141    90    91    1
   142    90    93    1
   143   111   112    1
   144   111   110    1
   145    94    93    1
   146    37    38    1
   147    84    85    1
   148   159   161    1
   149   159   156    1
   150    47    44    1
   151    47    48    1
   152   112   113    2
   153    49    48    1
   154    85    86    2
   155    43    44    1
   156    43    39   am
   157    91    92    2
   158   168   167    1
   159   168   170    1
   160    58    59    1
   161   155   156    1
   162    59    60    1
   163    38    39    1
   164    38    41    1
   165   156   157    1
   166    39    40    2
   167    86    87    1
   168    86    88    1
   169   167   164    1
   170   163   157   am
   171   163   164    1
   172    60    62   ar
   173    60    61   ar
   174   157   158    2
   175    41    42    1
   176   164   165    1
   177   165   166    2
