@<TRIPOS>MOLECULE
tmp/2a5jA00.pdb
 134 127 0 0 0
SMALL
GASTEIGER

@<TRIPOS>ATOM
      1  N         22.4970   -8.9570   13.6590 N.3    21  THR21      -0.1203
      2  CA        23.1710   -9.4700   14.8440 C.3    21  THR21       0.1994
      3  C         24.3640  -10.3340   14.4460 C.2    21  THR21       0.2618
      4  O         24.2790  -11.1330   13.5050 O.2    21  THR21      -0.2717
      5  CB        22.2140  -10.3240   15.6950 C.3    21  THR21       0.1784
      6  OG1       20.9720   -9.6420   15.8510 O.3    21  THR21      -0.2211
      7  CG2       22.7960  -10.5980   17.0730 C.3    21  THR21       0.0376
      8  N         25.4620  -10.1960   15.1770 N.am   22  GLY22      -0.1942
      9  CA        26.5710  -11.1170   14.9920 C.3    22  GLY22       0.2014
     10  C         27.5200  -10.8090   13.8510 C.2    22  GLY22       0.2639
     11  O         28.4410  -11.6030   13.6000 O.2    22  GLY22      -0.2714
     12  N         27.3050   -9.6920   13.1490 N.am   23  VAL23      -0.1963
     13  CA        28.1960   -9.3360   12.0370 C.3    23  VAL23       0.1727
     14  C         29.5380   -8.7620   12.5040 C.2    23  VAL23       0.2617
     15  O         30.4850   -8.6940   11.7080 O.2    23  VAL23      -0.2715
     16  CB        27.5310   -8.4130   10.9930 C.3    23  VAL23       0.0290
     17  CG1       26.2690   -9.0670   10.4610 C.3    23  VAL23       0.0023
     18  CG2       27.1950   -7.0610   11.5870 C.3    23  VAL23       0.0023
     19  N         29.6050   -8.3800   13.7910 N.am   24  GLY24      -0.1940
     20  CA        30.8250   -7.8260   14.3920 C.3    24  GLY24       0.2014
     21  C         30.8140   -6.3220   14.6920 C.2    24  GLY24       0.2639
     22  O         31.8700   -5.7090   14.8490 O.2    24  GLY24      -0.2714
     23  N         29.6140   -5.7350   14.7880 N.am   25  LYS25      -0.1963
     24  CA        29.4720   -4.3030   15.0440 C.3    25  LYS25       0.1728
     25  C         30.1570   -3.8550   16.3340 C.2    25  LYS25       0.2617
     26  O         30.8590   -2.8390   16.3650 O.2    25  LYS25      -0.2715
     27  CB        27.9960   -3.9180   15.0600 C.3    25  LYS25       0.0311
     28  CG        27.2670   -4.2790   13.7960 C.3    25  LYS25       0.0038
     29  CD        25.8540   -3.7500   13.7780 C.3    25  LYS25       0.0206
     30  CE        24.9290   -4.3640   14.8350 C.3    25  LYS25       0.1093
     31  NZ        24.8350   -5.8130   14.7110 N.3    25  LYS25      -0.1314
     32  N         29.9390   -4.6270   17.3990 N.am   26  SER26      -0.1936
     33  CA        30.5130   -4.2990   18.6950 C.3    26  SER26       0.2055
     34  C         32.0180   -4.5000   18.7020 C.2    26  SER26       0.2643
     35  O         32.7490   -3.6750   19.2510 O.2    26  SER26      -0.2714
     36  CB        29.8250   -5.0970   19.7940 C.3    26  SER26       0.2130
     37  OG        28.4820   -4.7050   19.8570 O.3    26  SER26      -0.2179
     38  N         32.4750   -5.5890   18.0920 N.am   27  CYS27      -0.1967
     39  CA        33.9150   -5.8020   17.9710 C.3    27  CYS27       0.1712
     40  C         34.5970   -4.7380   17.1200 C.2    27  CYS27       0.2296
     41  O         35.7340   -4.3690   17.3990 O.2    27  CYS27      -0.2864
     42  CB        34.2180   -7.1870   17.4050 C.3    27  CYS27       0.0983
     43  SG        33.8310   -8.5070   18.6130 S.3    27  CYS27      -0.0798
     44  N         40.5660   -6.9520   20.7550 N.3    37  PHE37      -0.1241
     45  CA        39.5400   -7.8820   20.3110 C.3    37  PHE37       0.1605
     46  C         39.3930   -8.9830   21.3610 C.2    37  PHE37       0.2264
     47  O         40.3470   -9.7090   21.6340 O.2    37  PHE37      -0.2867
     48  CB        39.9450   -8.4940   18.9720 C.3    37  PHE37       0.0534
     49  CG        38.9720   -9.5140   18.4410 C.ar   37  PHE37      -0.0203
     50  CD1       37.8090   -9.1090   17.7970 C.ar   37  PHE37      -0.0042
     51  CD2       39.2290  -10.8740   18.5720 C.ar   37  PHE37      -0.0042
     52  CE1       36.9020  -10.0430   17.3000 C.ar   37  PHE37      -0.0003
     53  CE2       38.3310  -11.8290   18.0740 C.ar   37  PHE37      -0.0003
     54  CZ        37.1600  -11.4120   17.4340 C.ar   37  PHE37      -0.0000
     55  N         36.3290  -11.7720   22.0910 N.3    39  PRO39      -0.2116
     56  CA        35.0090  -12.3840   21.9120 C.3    39  PRO39       0.1372
     57  C         34.2980  -12.6080   23.2450 C.2    39  PRO39       0.2244
     58  O         33.2080  -12.0710   23.4570 O.2    39  PRO39      -0.2868
     59  CB        35.3230  -13.7350   21.2530 C.3    39  PRO39       0.0268
     60  CG        36.8190  -13.9170   21.3720 C.3    39  PRO39       0.0207
     61  CD        37.3870  -12.5430   21.4170 C.3    39  PRO39       0.0892
     62  N         24.5750   -0.6680   19.4970 N.3    63  THR63      -0.1218
     63  CA        23.1350   -0.9910   19.5440 C.3    63  THR63       0.1862
     64  C         22.7020   -1.7440   20.8000 C.2    63  THR63       0.2287
     65  O         21.4950   -1.9490   20.9920 O.2    63  THR63      -0.2866
     66  CB        22.7080   -1.8830   18.3680 C.3    63  THR63       0.1770
     67  OG1       23.4430   -3.1190   18.4560 O.3    63  THR63      -0.2211
     68  CG2       22.9540   -1.2040   17.0020 C.3    63  THR63       0.0375
     69  N         22.8060   -4.8150   21.3670 N.3    65  GLY65      -0.1225
     70  CA        22.1620   -6.0760   20.9730 C.3    65  GLY65       0.1811
     71  C         20.6790   -5.9920   20.6980 C.2    65  GLY65       0.2280
     72  O         20.0260   -7.0300   20.5070 O.2    65  GLY65      -0.2866
     73  N         18.9770   -5.2250   18.1840 N.3    67  GLU67      -0.1245
     74  CA        18.5810   -5.7710   16.8830 C.3    67  GLU67       0.1567
     75  C         18.3570   -7.2920   16.8910 C.2    67  GLU67       0.2260
     76  O         17.7770   -7.8380   15.9370 O.2    67  GLU67      -0.2867
     77  CB        19.6120   -5.4030   15.8110 C.3    67  GLU67       0.0388
     78  CG        20.9510   -6.1800   15.8630 C.3    67  GLU67       0.1160
     79  CD        21.9550   -5.6830   16.9020 C.2    67  GLU67       0.3649
     80  OE1       21.6130   -4.8050   17.7290 O.co2  67  GLU67      -0.2457
     81  OE2       23.1040   -6.1810   16.8570 O.co2  67  GLU67      -0.2457
     82  N         32.5490   -7.2780    7.0630 N.3   120  ASN120     -0.1225
     83  CA        33.4060   -7.6580    8.1820 C.3   120  ASN120      0.1785
     84  C         33.7030   -9.1600    8.1980 C.2   120  ASN120      0.2597
     85  O         33.0230   -9.9590    7.5390 O.2   120  ASN120     -0.2718
     86  CB        32.7920   -7.1900    9.5310 C.3   120  ASN120      0.1169
     87  CG        33.7420   -7.3680   10.7020 C.2   120  ASN120      0.2627
     88  OD1       34.9110   -6.9890   10.6090 O.2   120  ASN120     -0.2716
     89  ND2       33.2610   -7.9670   11.7910 N.am  120  ASN120     -0.0877
     90  N         34.7150   -9.5100    8.9920 N.am  121  LYS121     -0.1980
     91  CA        35.2500  -10.8770    9.1370 C.3   121  LYS121      0.1596
     92  C         36.0850  -11.3170    7.9400 C.2   121  LYS121      0.2287
     93  O         36.0730  -12.5000    7.5620 O.2   121  LYS121     -0.2864
     94  CB        34.1600  -11.9010    9.4760 C.3   121  LYS121      0.0298
     95  CG        33.2030  -11.4390   10.5800 C.3   121  LYS121      0.0038
     96  CD        32.4890  -12.6320   11.2010 C.3   121  LYS121      0.0206
     97  CE        31.4920  -12.1970   12.2600 C.3   121  LYS121      0.1093
     98  NZ        30.5790  -13.3070   12.6170 N.3   121  LYS121     -0.1314
     99  N         39.0530  -11.9090    7.7540 N.3   123  ASP123     -0.1225
    100  CA        40.0250  -12.9380    8.1390 C.3   123  ASP123      0.1805
    101  C         39.5180  -14.3650    7.8690 C.2   123  ASP123      0.2597
    102  O         40.3130  -15.3160    7.8400 O.2   123  ASP123     -0.2718
    103  CB        40.4210  -12.7920    9.6100 C.3   123  ASP123      0.1424
    104  CG        39.2330  -12.8590   10.5410 C.2   123  ASP123      0.3668
    105  OD1       38.4000  -11.9360   10.4760 O.co2 123  ASP123     -0.2456
    106  OD2       39.1260  -13.8180   11.3320 O.co2 123  ASP123     -0.2456
    107  N         38.2060  -14.5160    7.6880 N.am  124  LEU124     -0.1979
    108  CA        37.5850  -15.8180    7.4920 C.3   124  LEU124      0.1596
    109  C         37.3990  -16.0810    5.9950 C.2   124  LEU124      0.2287
    110  O         36.3220  -16.4510    5.5230 O.2   124  LEU124     -0.2864
    111  CB        36.2620  -15.9050    8.2560 C.3   124  LEU124      0.0297
    112  CG        36.3200  -15.7330    9.7780 C.3   124  LEU124      0.0022
    113  CD1       34.9190  -15.8780   10.3910 C.3   124  LEU124      0.0001
    114  CD2       37.3190  -16.7080   10.4090 C.3   124  LEU124      0.0001
    115  N         38.5220   -6.7030    9.2000 N.3   150  SER150     -0.1202
    116  CA        38.5070   -7.7220   10.2400 C.3   150  SER150      0.2020
    117  C         38.6520   -7.0670   11.6070 C.2   150  SER150      0.2619
    118  O         39.7120   -6.5360   11.9450 O.2   150  SER150     -0.2717
    119  CB        39.6250   -8.7450   10.0510 C.3   150  SER150      0.2103
    120  OG        39.6480   -9.6480   11.1490 O.3   150  SER150     -0.2182
    121  N         37.5880   -7.1070   12.4030 N.am  151  ALA151     -0.1965
    122  CA        37.6850   -6.6410   13.7810 C.3   151  ALA151      0.1728
    123  C         38.7050   -7.4680   14.5720 C.2   151  ALA151      0.2616
    124  O         39.3290   -6.9580   15.5100 O.2   151  ALA151     -0.2715
    125  CB        36.3190   -6.6730   14.4440 C.3   151  ALA151      0.0334
    126  N         38.8820   -8.7280   14.1740 N.am  152  LYS152     -0.1977
    127  CA        39.7960   -9.6280   14.8720 C.3   152  LYS152      0.1596
    128  C         41.2580   -9.2630   14.6380 C.2   152  LYS152      0.2287
    129  O         42.0170   -9.0760   15.5950 O.2   152  LYS152     -0.2864
    130  CB        39.5300  -11.0720   14.4670 C.3   152  LYS152      0.0298
    131  CG        40.5010  -12.0720   15.0970 C.3   152  LYS152      0.0038
    132  CD        40.0690  -13.4810   14.7780 C.3   152  LYS152      0.0206
    133  CE        41.0160  -14.4990   15.3930 C.3   152  LYS152      0.1093
    134  NZ        40.7080  -15.8820   14.9360 N.3   152  LYS152     -0.1314
@<TRIPOS>BOND
     1   110   109    2
     2   109   108    1
     3    82    83    1
     4   108   107    1
     5   108   111    1
     6    85    84    2
     7    93    92    2
     8   107   101   am
     9    99   100    1
    10   102   101    2
    11   101   100    1
    12    92    91    1
    13   100   103    1
    14    83    84    1
    15    83    86    1
    16    84    90   am
    17   111   112    1
    18    90    91    1
    19    91    94    1
    20   115   116    1
    21    94    95    1
    22    86    87    1
    23   103   104    1
    24   112   113    1
    25   112   114    1
    26   119   116    1
    27   119   120    1
    28   116   117    1
    29    17    16    1
    30   105   104   ar
    31   104   106   ar
    32    95    96    1
    33    88    87    2
    34    87    89   am
    35    16    18    1
    36    16    13    1
    37    96    97    1
    38   117   118    2
    39   117   121   am
    40    15    14    2
    41    13    14    1
    42    13    12    1
    43    97    98    1
    44   121   122    1
    45    14    19   am
    46    12    10   am
    47     4     3    2
    48    11    10    2
    49     1     2    1
    50    29    28    1
    51    29    30    1
    52   122   125    1
    53   122   123    1
    54    19    20    1
    55    28    27    1
    56    10     9    1
    57   126   123   am
    58   126   127    1
    59    20    21    1
    60     3     2    1
    61     3     8   am
    62   130   127    1
    63   130   131    1
    64   123   124    2
    65   128   127    1
    66   128   129    2
    67    21    23   am
    68    21    22    2
    69    31    30    1
    70   132   131    1
    71   132   133    1
    72    23    24    1
    73     2     5    1
    74   134   133    1
    75     9     8    1
    76    24    27    1
    77    24    25    1
    78     5     6    1
    79     5     7    1
    80    77    78    1
    81    77    74    1
    82    78    79    1
    83    76    75    2
    84    25    26    2
    85    25    32   am
    86    81    79   ar
    87    74    75    1
    88    74    73    1
    89    79    80   ar
    90    68    66    1
    91    40    41    2
    92    40    39    1
    93    52    54   ar
    94    52    50   ar
    95    32    33    1
    96    42    39    1
    97    42    43    1
    98    54    53   ar
    99    50    49   ar
   100    39    38    1
   101    53    51   ar
   102    38    34   am
   103    66    67    1
   104    66    63    1
   105    49    51   ar
   106    49    48    1
   107    33    34    1
   108    33    36    1
   109    34    35    2
   110    48    45    1
   111    62    63    1
   112    63    64    1
   113    36    37    1
   114    45    44    1
   115    45    46    1
   116    72    71    2
   117    71    70    1
   118    64    65    2
   119    70    69    1
   120    59    60    1
   121    59    56    1
   122    46    47    2
   123    60    61    1
   124    61    55    1
   125    56    55    1
   126    56    57    1
   127    57    58    2
