@<TRIPOS>MOLECULE
tmp/2a5kB00.pdb
 226 224 0 0 0
SMALL
GASTEIGER

@<TRIPOS>ATOM
      1  N         63.1600   54.4330   91.2210 N.3    25  THR25      -0.1203
      2  CA        63.8460   53.8600   90.0530 C.3    25  THR25       0.1994
      3  C         63.7620   52.3430   90.0280 C.2    25  THR25       0.2619
      4  O         64.0600   51.6780   91.0120 O.2    25  THR25      -0.2717
      5  CB        65.3340   54.2480   89.9970 C.3    25  THR25       0.1784
      6  OG1       65.4770   55.6680   89.8030 O.3    25  THR25      -0.2211
      7  CG2       66.0320   53.4930   88.8610 C.3    25  THR25       0.0376
      8  N         63.3390   51.7940   88.8980 N.am   26  THR26      -0.1938
      9  CA        63.4040   50.3500   88.7190 C.3    26  THR26       0.2028
     10  C         64.2290   50.0430   87.4810 C.2    26  THR26       0.2642
     11  O         63.9760   50.5770   86.4050 O.2    26  THR26      -0.2714
     12  CB        62.0260   49.7260   88.5000 C.3    26  THR26       0.1808
     13  OG1       61.1330   50.0880   89.5670 O.3    26  THR26      -0.2208
     14  CG2       62.1900   48.2280   88.4580 C.3    26  THR26       0.0379
     15  N         65.2240   49.1990   87.6220 N.am   27  LEU27      -0.1977
     16  CA        65.9710   48.7750   86.4680 C.3    27  LEU27       0.1596
     17  C         66.3270   47.2870   86.5980 C.2    27  LEU27       0.2287
     18  O         65.7680   46.5960   87.4720 O.2    27  LEU27      -0.2864
     19  CB        67.2190   49.6390   86.2980 C.3    27  LEU27       0.0297
     20  CG        68.0880   49.9540   87.5050 C.3    27  LEU27       0.0022
     21  CD1       68.6910   48.7090   88.0780 C.3    27  LEU27       0.0001
     22  CD2       69.1860   50.9640   87.1240 C.3    27  LEU27       0.0001
     23  N         73.5010   53.8850   89.1530 N.3    41  HIS41      -0.1241
     24  CA        72.6270   55.0560   88.9780 C.3    41  HIS41       0.1621
     25  C         71.2570   54.7130   89.4690 C.2    41  HIS41       0.2264
     26  O         70.4540   55.5840   89.5930 O.2    41  HIS41      -0.2867
     27  CB        72.6350   55.7090   87.5670 C.3    41  HIS41       0.0745
     28  CG        72.0830   54.8530   86.4590 C.ar   41  HIS41       0.0817
     29  ND1       72.8900   54.2230   85.5360 N.ar   41  HIS41      -0.2268
     30  CD2       70.8080   54.5840   86.0760 C.ar   41  HIS41       0.1154
     31  CE1       72.1420   53.5540   84.6630 C.ar   41  HIS41       0.1986
     32  NE2       70.8710   53.7480   84.9760 N.ar   41  HIS41      -0.2212
     33  N         70.0750   57.0470   92.1740 N.3    44  CYS44      -0.1221
     34  CA        69.8820   58.4660   91.9250 C.3    44  CYS44       0.1808
     35  C         68.4180   58.8560   91.9980 C.2    44  CYS44       0.2601
     36  O         67.5340   58.0010   92.1340 O.2    44  CYS44      -0.2717
     37  CB        70.4250   58.8480   90.5550 C.3    44  CYS44       0.0970
     38  SG        72.2040   58.7910   90.5080 S.3    44  CYS44      -0.0800
     39  N         68.1690   60.1600   91.9170 N.am   45  THR45      -0.1953
     40  CA        66.8200   60.6790   91.8710 C.3    45  THR45       0.1897
     41  C         66.7570   61.7650   90.8280 C.2    45  THR45       0.2313
     42  O         67.7860   62.3200   90.4260 O.2    45  THR45      -0.2863
     43  CB        66.3620   61.2480   93.2200 C.3    45  THR45       0.1794
     44  OG1       67.3350   62.1810   93.7040 O.3    45  THR45      -0.2208
     45  CG2       66.1650   60.1210   94.2310 C.3    45  THR45       0.0378
     46  N         70.8730   63.9240   88.7750 N.3    49  MET49      -0.1196
     47  CA        71.4850   63.0390   87.7850 C.3    49  MET49       0.1786
     48  C         72.6530   63.7870   87.1460 C.2    49  MET49       0.2306
     49  O         73.5690   63.1850   86.5920 O.2    49  MET49      -0.2863
     50  CB        70.4740   62.6350   86.6960 C.2    49  MET49       0.0070
     51  CG        69.1880   61.9050   87.1670 C.2    49  MET49       0.0282
     52  SD        68.0890   61.2960   85.8180 S.3    49  MET49      -0.1125
     53  CE        66.5490   61.0200   86.7280 C.3    49  MET49       0.0742
     54  N         75.6830   63.5140   90.5160 N.3    52  PRO52      -0.2116
     55  CA        75.4790   62.6470   91.6530 C.3    52  PRO52       0.1372
     56  C         76.7670   62.4750   92.4400 C.2    52  PRO52       0.2244
     57  O         77.8620   62.4340   91.8710 O.2    52  PRO52      -0.2868
     58  CB        75.0130   61.3470   91.0340 C.3    52  PRO52       0.0268
     59  CG        75.5620   61.3700   89.7030 C.3    52  PRO52       0.0207
     60  CD        75.6380   62.7880   89.2510 C.3    52  PRO52       0.0892
     61  N         77.9290   59.6330   94.4650 N.3    54  TYR54      -0.1241
     62  CA        77.5150   58.2760   94.7070 C.3    54  TYR54       0.1605
     63  C         77.8830   57.7550   96.0740 C.2    54  TYR54       0.2264
     64  O         77.1560   56.9670   96.6700 O.2    54  TYR54      -0.2867
     65  CB        78.0830   57.3550   93.6230 C.3    54  TYR54       0.0534
     66  CG        77.3800   57.4930   92.3030 C.ar   54  TYR54      -0.0201
     67  CD1       77.9470   58.1980   91.2380 C.ar   54  TYR54      -0.0009
     68  CD2       76.1170   56.9560   92.1290 C.ar   54  TYR54      -0.0009
     69  CE1       77.2600   58.3070   90.0010 C.ar   54  TYR54       0.0417
     70  CE2       75.4490   57.0820   90.9680 C.ar   54  TYR54       0.0417
     71  CZ        76.0020   57.7550   89.8960 C.ar   54  TYR54       0.1957
     72  OH        75.2490   57.8130   88.7090 O.3    54  TYR54      -0.2866
     73  N         67.5640   50.1510   72.6350 N.3   140  PHE140     -0.1227
     74  CA        67.2280   50.2720   74.0610 C.3   140  PHE140      0.1736
     75  C         66.2270   51.3580   74.3090 C.2   140  PHE140      0.2595
     76  O         66.2280   52.3940   73.6450 O.2   140  PHE140     -0.2718
     77  CB        68.4610   50.6010   74.8700 C.3   140  PHE140      0.0547
     78  CG        69.3850   49.4630   75.0300 C.ar  140  PHE140     -0.0202
     79  CD1       70.7270   49.5850   74.6550 C.ar  140  PHE140     -0.0042
     80  CD2       68.9390   48.2660   75.5870 C.ar  140  PHE140     -0.0042
     81  CE1       71.6070   48.5400   74.8400 C.ar  140  PHE140     -0.0003
     82  CE2       69.8120   47.2200   75.7870 C.ar  140  PHE140     -0.0003
     83  CZ        71.1700   47.3640   75.4160 C.ar  140  PHE140     -0.0000
     84  N         65.3890   51.1320   75.2970 N.am  141  LEU141     -0.1966
     85  CA        64.3120   52.0490   75.5710 C.3   141  LEU141      0.1728
     86  C         64.4940   52.3980   77.0440 C.2   141  LEU141      0.2616
     87  O         65.3180   51.7690   77.7590 O.2   141  LEU141     -0.2715
     88  CB        62.9820   51.3650   75.3150 C.3   141  LEU141      0.0311
     89  CG        62.3070   51.4670   73.9430 C.3   141  LEU141      0.0022
     90  CD1       61.1710   50.4370   73.8030 C.3   141  LEU141      0.0001
     91  CD2       61.7120   52.8800   73.7190 C.3   141  LEU141      0.0001
     92  N         63.7480   53.3930   77.5040 N.am  142  ASN142     -0.1958
     93  CA        63.8070   53.7150   78.9150 C.3   142  ASN142      0.1819
     94  C         63.4410   52.4790   79.7440 C.2   142  ASN142      0.2622
     95  O         62.4490   51.8130   79.4430 O.2   142  ASN142     -0.2715
     96  CB        62.8860   54.8930   79.2300 C.3   142  ASN142      0.1195
     97  CG        62.9370   55.3060   80.7130 C.2   142  ASN142      0.2630
     98  OD1       61.8830   55.4480   81.3630 O.2   142  ASN142     -0.2716
     99  ND2       64.1580   55.5060   81.2500 N.am  142  ASN142     -0.0877
    100  N         64.2400   52.1730   80.7720 N.am  143  GLY143     -0.1940
    101  CA        63.9960   50.9870   81.5990 C.3   143  GLY143      0.2014
    102  C         64.9050   49.8060   81.2750 C.2   143  GLY143      0.2640
    103  O         64.8590   48.7880   81.9400 O.2   143  GLY143     -0.2714
    104  N         65.7180   49.9450   80.2430 N.am  144  SER144     -0.1935
    105  CA        66.6430   48.8980   79.8120 C.3   144  SER144      0.2055
    106  C         67.9700   48.8100   80.5870 C.2   144  SER144      0.2643
    107  O         68.7090   47.8060   80.4580 O.2   144  SER144     -0.2714
    108  CB        66.9810   49.1000   78.3140 C.3   144  SER144      0.2130
    109  OG        67.5750   50.3830   78.1140 O.3   144  SER144     -0.2179
    110  N         68.3180   49.8730   81.3280 N.am  145  CYS145     -0.1967
    111  CA        69.6160   49.9190   81.9900 C.3   145  CYS145      0.1712
    112  C         69.7440   48.7270   82.9150 C.2   145  CYS145      0.2296
    113  O         68.7450   48.2760   83.5070 O.2   145  CYS145     -0.2864
    114  CB        69.8960   51.2720   82.6810 C.3   145  CYS145      0.0983
    115  SG        68.4700   51.8610   83.6760 S.3   145  CYS145     -0.0798
    116  N         74.3970   47.5130   80.5240 N.3   163  HIS163     -0.1226
    117  CA        73.9440   48.7540   79.9070 C.3   163  HIS163      0.1752
    118  C         73.6470   49.8870   80.9120 C.2   163  HIS163      0.2596
    119  O         72.8300   49.7110   81.8340 O.2   163  HIS163     -0.2718
    120  CB        72.6900   48.4900   79.0510 C.3   163  HIS163      0.0759
    121  CG        72.1460   49.7190   78.3860 C.ar  163  HIS163      0.0818
    122  ND1       72.8940   50.4770   77.5060 N.ar  163  HIS163     -0.2268
    123  CD2       70.9490   50.3530   78.5010 C.ar  163  HIS163      0.1154
    124  CE1       72.1730   51.5090   77.0910 C.ar  163  HIS163      0.1986
    125  NE2       70.9930   51.4660   77.6890 N.ar  163  HIS163     -0.2212
    126  N         74.2360   51.0610   80.6750 N.am  164  HIS164     -0.1961
    127  CA        73.9280   52.3100   81.4460 C.3   164  HIS164      0.1787
    128  C         73.2680   53.4860   80.7330 C.2   164  HIS164      0.2620
    129  O         72.4340   54.1610   81.3020 O.2   164  HIS164     -0.2715
    130  CB        75.2200   52.8660   82.1080 C.3   164  HIS164      0.0785
    131  CG        75.8660   51.8920   83.0360 C.ar  164  HIS164      0.0821
    132  ND1       76.1180   52.1740   84.3650 N.ar  164  HIS164     -0.2267
    133  CD2       76.2810   50.6160   82.8310 C.ar  164  HIS164      0.1154
    134  CE1       76.7110   51.1260   84.9220 C.ar  164  HIS164      0.1986
    135  NE2       76.7950   50.1590   84.0170 N.ar  164  HIS164     -0.2212
    136  N         73.7030   53.8220   79.5400 N.am  165  MET165     -0.1963
    137  CA        73.4040   55.1570   78.9910 C.3   165  MET165      0.1736
    138  C         73.0680   55.1360   77.5140 C.2   165  MET165      0.2616
    139  O         73.5640   54.2650   76.7550 O.2   165  MET165     -0.2715
    140  CB        74.5950   56.1330   79.1810 C.3   165  MET165      0.0427
    141  CG        75.3240   56.1130   80.5270 C.3   165  MET165      0.0599
    142  SD        74.4070   56.7610   81.9700 S.3   165  MET165     -0.1393
    143  CE        74.4600   58.5500   81.7080 C.3   165  MET165      0.0692
    144  N         72.2370   56.1060   77.1070 N.am  166  GLU166     -0.1963
    145  CA        72.0730   56.4190   75.6880 C.3   166  GLU166      0.1733
    146  C         72.6550   57.8000   75.4140 C.2   166  GLU166      0.2616
    147  O         72.2870   58.7720   76.0740 O.2   166  GLU166     -0.2715
    148  CB        70.6040   56.3590   75.2530 C.3   166  GLU166      0.0429
    149  CG        70.3830   56.4770   73.7250 C.3   166  GLU166      0.1163
    150  CD        68.9480   56.1260   73.3060 C.2   166  GLU166      0.3649
    151  OE1       68.1360   57.0890   73.1160 O.co2 166  GLU166     -0.2457
    152  OE2       68.6280   54.8960   73.1690 O.co2 166  GLU166     -0.2457
    153  N         73.5770   57.8720   74.4570 N.am  167  LEU167     -0.1964
    154  CA        74.1430   59.1460   73.9880 C.3   167  LEU167      0.1713
    155  C         73.2340   59.8840   72.9720 C.2   167  LEU167      0.2458
    156  O         72.4060   59.2570   72.2700 O.2   167  LEU167     -0.2730
    157  CB        75.5350   58.8820   73.3990 C.3   167  LEU167      0.0310
    158  CG        76.3840   58.2110   74.4850 C.3   167  LEU167      0.0022
    159  CD1       77.3660   57.2150   73.9640 C.3   167  LEU167      0.0001
    160  CD2       77.0590   59.2880   75.3720 C.3   167  LEU167      0.0001
    161  N         73.3550   61.2260   72.9090 N.am  168  PRO168     -0.2727
    162  CA        72.5490   61.9710   71.9420 C.3   168  PRO168      0.1402
    163  C         72.5420   61.4390   70.4820 C.2   168  PRO168      0.2269
    164  O         71.6240   61.7130   69.7410 O.2   168  PRO168     -0.2865
    165  CB        73.0950   63.4020   72.0710 C.3   168  PRO168      0.0296
    166  CG        73.4830   63.4800   73.4810 C.3   168  PRO168      0.0237
    167  CD        74.1510   62.1490   73.7400 C.3   168  PRO168      0.0939
    168  N         74.7910   53.6470   72.6530 N.3   172  HIS172     -0.1241
    169  CA        74.7150   53.2820   74.0030 C.3   172  HIS172      0.1621
    170  C         76.0910   53.1320   74.5900 C.2   172  HIS172      0.2264
    171  O         77.0280   52.6800   73.9290 O.2   172  HIS172     -0.2867
    172  CB        73.8930   52.0260   74.0590 C.3   172  HIS172      0.0745
    173  CG        72.5770   52.2070   73.3830 C.ar  172  HIS172      0.0817
    174  ND1       72.3100   51.7180   72.1210 N.ar  172  HIS172     -0.2268
    175  CD2       71.4740   52.9020   73.7650 C.ar  172  HIS172      0.1154
    176  CE1       71.0880   52.0830   71.7680 C.ar  172  HIS172      0.1986
    177  NE2       70.5600   52.7920   72.7510 N.ar  172  HIS172     -0.2212
    178  N         78.7930   57.9050   84.3510 N.3   187  ASP187     -0.1225
    179  CA        77.3810   57.7680   84.6140 C.3   187  ASP187      0.1805
    180  C         76.8300   59.0270   85.2260 C.2   187  ASP187      0.2601
    181  O         76.4330   59.0680   86.3900 O.2   187  ASP187     -0.2717
    182  CB        77.0470   56.5090   85.4140 C.3   187  ASP187      0.1424
    183  CG        77.9610   56.2780   86.6340 C.2   187  ASP187      0.3668
    184  OD1       79.0400   56.9360   86.8090 O.co2 187  ASP187     -0.2456
    185  OD2       77.5880   55.3700   87.4170 O.co2 187  ASP187     -0.2456
    186  N         76.8500   60.0830   84.4340 N.am  188  ARG188     -0.1920
    187  CA        76.2130   61.3410   84.8170 C.3   188  ARG188      0.1945
    188  C         75.5640   61.9660   83.5760 C.2   188  ARG188      0.2659
    189  O         76.0660   61.8140   82.4600 O.2   188  ARG188     -0.2711
    190  CB        77.1580   62.3150   85.5480 C.2   188  ARG188      0.0033
    191  CG        78.6530   62.3120   85.2030 C.2   188  ARG188      0.0179
    192  CD        79.5420   63.4130   85.9580 C.3   188  ARG188      0.2464
    193  NE        80.9830   63.2140   85.6950 N.pl3 188  ARG188     -0.0815
    194  CZ        82.0020   63.8960   86.2300 C.cat 188  ARG188      0.5349
    195  NH1       83.2430   63.5820   85.8800 N.pl3 188  ARG188      0.1354
    196  NH2       81.8150   64.8880   87.1020 N.pl3 188  ARG188      0.1354
    197  N         74.4080   62.6010   83.7650 N.am  189  GLN189     -0.1960
    198  CA        73.6970   63.1780   82.6410 C.3   189  GLN189      0.1733
    199  C         74.3250   64.5000   82.3970 C.2   189  GLN189      0.2617
    200  O         73.9250   65.4970   82.9450 O.2   189  GLN189     -0.2715
    201  CB        72.1980   63.2720   82.8960 C.3   189  GLN189      0.0408
    202  CG        71.5660   61.8690   82.8390 C.3   189  GLN189      0.0908
    203  CD        70.0380   61.8500   82.5890 C.2   189  GLN189      0.2608
    204  OE1       69.4780   60.7880   82.2310 O.2   189  GLN189     -0.2717
    205  NE2       69.3630   62.9980   82.7900 N.am  189  GLN189     -0.0878
    206  N         75.3630   64.4690   81.5850 N.am  190  THR190     -0.1937
    207  CA        76.2600   65.5820   81.4050 C.3   190  THR190      0.2028
    208  C         76.6950   65.5480   79.9400 C.2   190  THR190      0.2642
    209  O         76.8780   64.4650   79.3680 O.2   190  THR190     -0.2714
    210  CB        77.4450   65.3860   82.3450 C.3   190  THR190      0.1808
    211  OG1       77.5750   66.5290   83.1790 O.3   190  THR190     -0.2208
    212  CG2       78.7500   65.0970   81.6030 C.3   190  THR190      0.0379
    213  N         76.8160   66.7010   79.3000 N.am  191  ALA191     -0.1963
    214  CA        77.2570   66.6920   77.9100 C.3   191  ALA191      0.1728
    215  C         78.5070   65.8140   77.7440 C.2   191  ALA191      0.2616
    216  O         79.4690   65.9040   78.4920 O.2   191  ALA191     -0.2715
    217  CB        77.5220   68.0810   77.4320 C.3   191  ALA191      0.0334
    218  N         78.4730   64.9490   76.7560 N.am  192  GLN192     -0.1977
    219  CA        79.5680   64.0250   76.4870 C.3   192  GLN192      0.1601
    220  C         79.0820   63.2950   75.2580 C.2   192  GLN192      0.2287
    221  O         77.8670   63.0270   75.1180 O.2   192  GLN192     -0.2864
    222  CB        79.8400   63.0350   77.6600 C.3   192  GLN192      0.0394
    223  CG        78.6370   62.2040   78.1430 C.3   192  GLN192      0.0908
    224  CD        78.9700   61.2410   79.2990 C.2   192  GLN192      0.2608
    225  OE1       80.0320   60.5930   79.3140 O.2   192  GLN192     -0.2717
    226  NE2       78.0520   61.1370   80.2600 N.am  192  GLN192     -0.0878
@<TRIPOS>BOND
     1   164   163    2
     2   163   162    1
     3   176   174   ar
     4   176   177   ar
     5   162   165    1
     6   162   161    1
     7   165   166    1
     8   174   173   ar
     9   156   155    2
    10    73    74    1
    11   168   169    1
    12   177   175   ar
    13   161   155   am
    14   161   167    1
    15   155   154    1
    16   151   150   ar
    17   152   150   ar
    18   150   149    1
    19   173   175   ar
    20   173   172    1
    21   157   154    1
    22   157   158    1
    23   166   167    1
    24    76    75    2
    25    91    89    1
    26   149   148    1
    27    90    89    1
    28   171   170    2
    29    89    88    1
    30   159   158    1
    31   154   153    1
    32   169   172    1
    33   169   170    1
    34    74    75    1
    35    74    77    1
    36    75    84   am
    37   153   146   am
    38   158   160    1
    39    79    81   ar
    40    79    78   ar
    41    81    83   ar
    42    77    78    1
    43    78    80   ar
    44   221   220    2
    45   148   145    1
    46   220   219    1
    47    84    85    1
    48    88    85    1
    49   146   145    1
    50   146   147    2
    51    83    82   ar
    52    85    86    1
    53    80    82   ar
    54   145   144    1
    55   219   218    1
    56   219   222    1
    57   139   138    2
    58   218   215   am
    59    86    92   am
    60    86    87    2
    61   124   122   ar
    62   124   125   ar
    63   144   138   am
    64   217   214    1
    65    92    93    1
    66   122   121   ar
    67   138   137    1
    68   222   223    1
    69   125   123   ar
    70   215   214    1
    71   215   216    2
    72   214   213    1
    73   109   108    1
    74   223   224    1
    75   108   105    1
    76   121   123   ar
    77   121   120    1
    78    93    96    1
    79    93    94    1
    80   137   140    1
    81   137   136    1
    82   120   117    1
    83   140   141    1
    84    96    97    1
    85   224   225    2
    86   224   226   am
    87   213   208   am
    88   209   208    2
    89    95    94    2
    90   136   128   am
    91    94   100   am
    92   105   104    1
    93   105   106    1
    94   117   116    1
    95   117   118    1
    96   208   207    1
    97   104   102   am
    98   107   106    2
    99   141   142    1
   100   106   110   am
   101   126   118   am
   102   126   127    1
   103    97    99   am
   104    97    98    2
   105   128   129    2
   106   128   127    1
   107   100   101    1
   108   118   119    2
   109   102   101    1
   110   102   103    2
   111   110   111    1
   112   207   206    1
   113   207   210    1
   114   127   130    1
   115   206   199   am
   116   212   210    1
   117   143   142    1
   118   111   114    1
   119   111   112    1
   120   130   131    1
   121   204   203    2
   122   210   211    1
   123   199   198    1
   124   199   200    2
   125   189   188    2
   126   203   205   am
   127   203   202    1
   128   198   201    1
   129   198   197    1
   130   114   115    1
   131   133   131   ar
   132   133   135   ar
   133   202   201    1
   134   112   113    2
   135   131   132   ar
   136   188   197   am
   137   188   187    1
   138   135   134   ar
   139   178   179    1
   140   132   134   ar
   141   186   187    1
   142   186   180   am
   143   179   180    1
   144   179   182    1
   145    31    32   ar
   146    31    29   ar
   147   187   190    1
   148    32    30   ar
   149   191   190    2
   150   191   192    1
   151   180   181    2
   152   182   183    1
   153    29    28   ar
   154   193   192    1
   155   193   194    2
   156    52    53    1
   157    52    51    1
   158   195   194    1
   159    30    28   ar
   160   194   196    1
   161    19    16    1
   162    19    20    1
   163    11    10    2
   164    28    27    1
   165    16    17    1
   166    16    15    1
   167    49    48    2
   168    17    18    2
   169   183   184   ar
   170   183   185   ar
   171    50    51    2
   172    50    47    1
   173    22    20    1
   174    48    47    1
   175    10    15   am
   176    10     9    1
   177    20    21    1
   178    27    24    1
   179    47    46    1
   180    14    12    1
   181    12     9    1
   182    12    13    1
   183    72    71    1
   184     9     8    1
   185     7     5    1
   186     8     3   am
   187    24    23    1
   188    24    25    1
   189    60    59    1
   190    60    54    1
   191    25    26    2
   192    59    58    1
   193     6     5    1
   194    71    69   ar
   195    71    70   ar
   196     5     2    1
   197    69    67   ar
   198     3     2    1
   199     3     4    2
   200     2     1    1
   201    42    41    2
   202    38    37    1
   203    54    55    1
   204    37    34    1
   205    41    40    1
   206    70    68   ar
   207    58    55    1
   208    67    66   ar
   209    55    56    1
   210    40    39    1
   211    40    43    1
   212    57    56    2
   213    39    35   am
   214    34    35    1
   215    34    33    1
   216    35    36    2
   217    68    66   ar
   218    66    65    1
   219    43    44    1
   220    43    45    1
   221    65    62    1
   222    61    62    1
   223    62    63    1
   224    63    64    2
