@<TRIPOS>MOLECULE
tmp/2a5uA00.pdb
 176 167 0 0 0
SMALL
GASTEIGER

@<TRIPOS>ATOM
      1  N         46.3210   17.8890   39.8850 N.3   565  MET565     -0.1245
      2  CA        45.8480   18.7990   38.8590 C.3   565  MET565      0.1570
      3  C         44.8790   19.7940   39.4700 C.2   565  MET565      0.2261
      4  O         44.2210   19.4980   40.4620 O.2   565  MET565     -0.2867
      5  CB        45.1560   18.0090   37.7520 C.3   565  MET565      0.0387
      6  CG        46.1200   17.2560   36.8500 C.3   565  MET565      0.0595
      7  SD        45.3250   15.9660   35.8850 S.3   565  MET565     -0.1393
      8  CE        45.9650   14.5490   36.7480 C.3   565  MET565      0.0692
      9  N         41.7540   21.8360   38.2610 N.3   567  SER567     -0.1217
     10  CA        40.3960   21.3510   38.0420 C.3   567  SER567      0.1889
     11  C         39.5310   21.5660   39.2810 C.2   567  SER567      0.2288
     12  O         40.0080   21.4680   40.4120 O.2   567  SER567     -0.2866
     13  CB        40.4070   19.8590   37.6950 C.3   567  SER567      0.2089
     14  OG        41.1970   19.5970   36.5520 O.3   567  SER567     -0.2183
     15  N         37.4810   19.6730   40.3700 N.3   569  LYS569     -0.1245
     16  CA        37.7030   18.3950   41.0250 C.3   569  LYS569      0.1561
     17  C         39.1840   18.3340   41.3300 C.2   569  LYS569      0.2260
     18  O         39.9040   19.3000   41.0840 O.2   569  LYS569     -0.2867
     19  CB        37.2890   17.2640   40.0920 C.3   569  LYS569      0.0271
     20  CG        35.8480   17.4110   39.6060 C.3   569  LYS569      0.0035
     21  CD        35.4780   16.4010   38.5460 C.3   569  LYS569      0.0206
     22  CE        34.1050   16.7080   37.9830 C.3   569  LYS569      0.1093
     23  NZ        33.0600   16.7350   39.0450 N.3   569  LYS569     -0.1314
     24  N         41.6930   15.5980   40.4200 N.3   571  PRO571     -0.2116
     25  CA        42.2710   14.3620   39.9110 C.3   571  PRO571      0.1372
     26  C         43.6810   14.2960   40.4400 C.2   571  PRO571      0.2244
     27  O         44.2860   15.3300   40.7210 O.2   571  PRO571     -0.2868
     28  CB        42.2400   14.5570   38.3940 C.3   571  PRO571      0.0268
     29  CG        41.1040   15.5150   38.1870 C.3   571  PRO571      0.0207
     30  CD        41.3190   16.4930   39.3120 C.3   571  PRO571      0.0892
     31  N         47.6130   12.8400   39.7740 N.3   573  TRP573     -0.1241
     32  CA        48.5150   12.5670   38.6440 C.3   573  TRP573      0.1605
     33  C         49.6570   11.7140   39.1740 C.2   573  TRP573      0.2264
     34  O         50.5910   12.2240   39.7880 O.2   573  TRP573     -0.2867
     35  CB        49.0430   13.9050   38.0700 C.3   573  TRP573      0.0550
     36  CG        50.2350   13.8160   37.1550 C.ar  573  TRP573      0.0003
     37  CD1       51.4790   13.3740   37.4780 C.ar  573  TRP573      0.0946
     38  CD2       50.2790   14.1430   35.7650 C.ar  573  TRP573      0.0152
     39  NE1       52.2940   13.3970   36.3800 N.ar  573  TRP573     -0.2442
     40  CE2       51.5810   13.8670   35.3130 C.ar  573  TRP573      0.0810
     41  CE3       49.3450   14.6340   34.8560 C.ar  573  TRP573      0.0012
     42  CZ2       51.9710   14.0640   33.9930 C.ar  573  TRP573      0.0191
     43  CZ3       49.7340   14.8250   33.5440 C.ar  573  TRP573      0.0001
     44  CH2       51.0320   14.5410   33.1280 C.ar  573  TRP573      0.0015
     45  N         46.1590    8.8340   35.8080 N.3   592  ILE592     -0.1245
     46  CA        45.4520    9.9180   36.4600 C.3   592  ILE592      0.1561
     47  C         44.2400    9.4450   37.2430 C.2   592  ILE592      0.2260
     48  O         43.2360    9.0370   36.6640 O.2   592  ILE592     -0.2867
     49  CB        44.9480   10.9520   35.4530 C.3   592  ILE592      0.0252
     50  CG1       46.1080   11.7200   34.8490 C.3   592  ILE592      0.0019
     51  CG2       44.0220   11.9320   36.1210 C.3   592  ILE592      0.0019
     52  CD1       45.6250   12.7180   33.7800 C.3   592  ILE592      0.0001
     53  N         40.9360   10.0410   39.5810 N.3   594  LYS594     -0.1245
     54  CA        39.9910   11.1260   39.7460 C.3   594  LYS594      0.1561
     55  C         38.6630   10.7060   40.3460 C.2   594  LYS594      0.2260
     56  O         38.2660    9.5530   40.2430 O.2   594  LYS594     -0.2867
     57  CB        39.7290   11.7950   38.4020 C.3   594  LYS594      0.0271
     58  CG        38.9030   13.0720   38.5330 C.3   594  LYS594      0.0035
     59  CD        37.9410   13.1920   37.3900 C.3   594  LYS594      0.0206
     60  CE        38.6620   12.9550   36.0800 C.3   594  LYS594      0.1093
     61  NZ        37.6480   12.8020   35.0170 N.3   594  LYS594     -0.1314
     62  N         33.5770   12.3630   38.0930 N.3   597  ASP597     -0.1239
     63  CA        32.9820   12.1360   36.7780 C.3   597  ASP597      0.1674
     64  C         32.4930   10.7150   36.6050 C.2   597  ASP597      0.2266
     65  O         33.0400    9.7850   37.1920 O.2   597  ASP597     -0.2867
     66  CB        33.9850   12.4480   35.6640 C.3   597  ASP597      0.1410
     67  CG        34.3860   13.9150   35.6450 C.2   597  ASP597      0.3668
     68  OD1       33.4670   14.7600   35.6820 O.co2 597  ASP597     -0.2456
     69  OD2       35.6020   14.2240   35.5910 O.co2 597  ASP597     -0.2456
     70  N         32.7640    8.1140   29.6800 N.3   602  ASP602     -0.1239
     71  CA        34.0390    8.3620   29.0210 C.3   602  ASP602      0.1674
     72  C         34.4360    7.1160   28.2400 C.2   602  ASP602      0.2266
     73  O         34.6690    7.1810   27.0350 O.2   602  ASP602     -0.2867
     74  CB        35.1310    8.6950   30.0480 C.3   602  ASP602      0.1410
     75  CG        35.1390   10.1710   30.4540 C.2   602  ASP602      0.3668
     76  OD1       34.0770   10.6850   30.8700 O.co2 602  ASP602     -0.2456
     77  OD2       36.2120   10.8120   30.3670 O.co2 602  ASP602     -0.2456
     78  N         42.7760    7.4700   24.6050 N.3   628  TYR628     -0.1241
     79  CA        43.5890    7.0290   25.7380 C.3   628  TYR628      0.1605
     80  C         42.8660    6.0480   26.6460 C.2   628  TYR628      0.2264
     81  O         41.6550    6.0130   26.6880 O.2   628  TYR628     -0.2867
     82  CB        44.0470    8.2530   26.5570 C.3   628  TYR628      0.0534
     83  CG        42.9100    9.1860   26.9060 C.ar  628  TYR628     -0.0201
     84  CD1       42.1000    8.9510   27.9980 C.ar  628  TYR628     -0.0009
     85  CD2       42.5990   10.2620   26.0780 C.ar  628  TYR628     -0.0009
     86  CE1       40.9980    9.7680   28.2560 C.ar  628  TYR628      0.0417
     87  CE2       41.5060   11.0750   26.3210 C.ar  628  TYR628      0.0417
     88  CZ        40.7120   10.8280   27.4010 C.ar  628  TYR628      0.1957
     89  OH        39.6150   11.6280   27.5980 O.3   628  TYR628     -0.2866
     90  N         42.7320    7.1000   34.3930 N.3   640  ILE640     -0.1231
     91  CA        42.9660    7.6340   33.0570 C.3   640  ILE640      0.1692
     92  C         44.4170    7.4560   32.6620 C.2   640  ILE640      0.2592
     93  O         45.3030    7.6070   33.4800 O.2   640  ILE640     -0.2718
     94  CB        42.6610    9.1490   32.9930 C.3   640  ILE640      0.0266
     95  CG1       41.1590    9.3790   32.9010 C.3   640  ILE640      0.0019
     96  CG2       43.4150    9.7840   31.8430 C.3   640  ILE640      0.0020
     97  CD1       40.4540    9.1330   34.1910 C.3   640  ILE640      0.0001
     98  N         44.6630    7.1180   31.4080 N.am  641  GLU641     -0.1966
     99  CA        46.0340    6.9770   30.9450 C.3   641  GLU641      0.1733
    100  C         46.5880    8.3930   30.7200 C.2   641  GLU641      0.2616
    101  O         45.8360    9.3170   30.3750 O.2   641  GLU641     -0.2715
    102  CB        46.0630    6.2020   29.6340 C.3   641  GLU641      0.0429
    103  CG        47.4210    6.1970   28.9430 C.3   641  GLU641      0.1163
    104  CD        47.3590    5.6410   27.5200 C.2   641  GLU641      0.3649
    105  OE1       48.4310    5.4460   26.9160 O.co2 641  GLU641     -0.2457
    106  OE2       46.2460    5.4020   26.9990 O.co2 641  GLU641     -0.2457
    107  N         47.8910    8.5640   30.9320 N.am  642  ILE642     -0.1963
    108  CA        48.5510    9.8600   30.7280 C.3   642  ILE642      0.1727
    109  C         49.3720    9.8300   29.4450 C.2   642  ILE642      0.2616
    110  O         50.3770    9.1250   29.3640 O.2   642  ILE642     -0.2715
    111  CB        49.5330   10.2040   31.8760 C.3   642  ILE642      0.0290
    112  CG1       48.7610   10.6690   33.1140 C.3   642  ILE642      0.0022
    113  CG2       50.5500   11.2510   31.3980 C.3   642  ILE642      0.0023
    114  CD1       49.6520   11.0750   34.2930 C.3   642  ILE642      0.0001
    115  N         48.9460   10.5810   28.4410 N.am  643  VAL643     -0.1977
    116  CA        49.6850   10.6310   27.1830 C.3   643  VAL643      0.1596
    117  C         50.9520   11.4790   27.3680 C.2   643  VAL643      0.2287
    118  O         50.8730   12.6360   27.7650 O.2   643  VAL643     -0.2864
    119  CB        48.8250   11.2530   26.0520 C.3   643  VAL643      0.0276
    120  CG1       49.4910   11.0140   24.6990 C.3   643  VAL643      0.0022
    121  CG2       47.4080   10.6700   26.0900 C.3   643  VAL643      0.0022
    122  N         52.1920   15.8230   26.3010 N.3   646  ALA646     -0.1245
    123  CA        50.9510   16.4620   25.8950 C.3   646  ALA646      0.1562
    124  C         50.5950   17.6890   26.7360 C.2   646  ALA646      0.2260
    125  O         50.8320   17.7280   27.9590 O.2   646  ALA646     -0.2867
    126  CB        49.8390   15.4590   25.9720 C.3   646  ALA646      0.0290
    127  N         43.8380   18.8180   23.9180 N.3   713  MET713     -0.1245
    128  CA        45.2770   18.6820   24.0970 C.3   713  MET713      0.1570
    129  C         45.9970   18.3450   22.8000 C.2   713  MET713      0.2261
    130  O         45.3860   17.8370   21.8460 O.2   713  MET713     -0.2867
    131  CB        45.5740   17.5930   25.1520 C.3   713  MET713      0.0387
    132  CG        44.9640   17.9110   26.5140 C.3   713  MET713      0.0595
    133  SD        45.6260   17.0040   27.9350 S.3   713  MET713     -0.1393
    134  CE        47.3780   17.2010   27.7170 C.3   713  MET713      0.0692
    135  N         44.2270   15.7020   20.7560 N.3   721  PHE721     -0.1241
    136  CA        43.2500   14.7600   21.2980 C.3   721  PHE721      0.1605
    137  C         42.3820   15.3400   22.4150 C.2   721  PHE721      0.2264
    138  O         42.8910   15.9800   23.3290 O.2   721  PHE721     -0.2867
    139  CB        43.9820   13.5130   21.8100 C.3   721  PHE721      0.0534
    140  CG        44.8200   13.7440   23.0480 C.ar  721  PHE721     -0.0203
    141  CD1       44.2850   13.5640   24.3070 C.ar  721  PHE721     -0.0042
    142  CD2       46.1650   14.0640   22.9430 C.ar  721  PHE721     -0.0042
    143  CE1       45.0800   13.6890   25.4420 C.ar  721  PHE721     -0.0003
    144  CE2       46.9680   14.1910   24.0740 C.ar  721  PHE721     -0.0003
    145  CZ        46.4210   13.9990   25.3240 C.ar  721  PHE721     -0.0000
    146  N         39.6600   15.2800   25.7170 N.3   723  ILE723     -0.1231
    147  CA        39.6280   14.6030   27.0100 C.3   723  ILE723      0.1692
    148  C         38.3810   15.0640   27.7690 C.2   723  ILE723      0.2592
    149  O         37.6350   15.9110   27.2710 O.2   723  ILE723     -0.2718
    150  CB        40.8860   14.9270   27.8230 C.3   723  ILE723      0.0266
    151  CG1       40.8370   16.3710   28.3390 C.3   723  ILE723      0.0019
    152  CG2       42.1380   14.7460   26.9450 C.3   723  ILE723      0.0020
    153  CD1       42.0700   16.7780   29.1800 C.3   723  ILE723      0.0001
    154  N         38.1420   14.5280   28.9650 N.am  724  ASP724     -0.1960
    155  CA        36.9400   14.9130   29.7210 C.3   724  ASP724      0.1840
    156  C         35.7360   14.6250   28.8280 C.2   724  ASP724      0.2622
    157  O         35.5420   15.3120   27.8260 O.2   724  ASP724     -0.2715
    158  CB        36.9450   16.4100   30.0390 C.3   724  ASP724      0.1450
    159  CG        37.3590   16.7160   31.4700 C.2   724  ASP724      0.3671
    160  OD1       38.5550   17.0090   31.7140 O.co2 724  ASP724     -0.2456
    161  OD2       36.4800   16.6610   32.3580 O.co2 724  ASP724     -0.2456
    162  N         34.9170   13.6390   29.1880 N.am  725  PHE725     -0.1960
    163  CA        33.7690   13.2900   28.3540 C.3   725  PHE725      0.1771
    164  C         32.4610   13.0220   29.0630 C.2   725  PHE725      0.2620
    165  O         31.4780   12.6600   28.4180 O.2   725  PHE725     -0.2715
    166  CB        34.0900   12.0720   27.4980 C.3   725  PHE725      0.0574
    167  CG        35.1270   12.3220   26.4470 C.ar  725  PHE725     -0.0200
    168  CD1       36.3790   11.7490   26.5470 C.ar  725  PHE725     -0.0042
    169  CD2       34.8290   13.0810   25.3320 C.ar  725  PHE725     -0.0042
    170  CE1       37.3170   11.9190   25.5530 C.ar  725  PHE725     -0.0003
    171  CE2       35.7580   13.2590   24.3330 C.ar  725  PHE725     -0.0003
    172  CZ        37.0040   12.6790   24.4380 C.ar  725  PHE725     -0.0000
    173  N         32.4400   13.1770   30.3810 N.am  726  GLY726     -0.1954
    174  CA        31.2080   12.9480   31.1180 C.3   726  GLY726      0.1869
    175  C         30.2560   14.1150   30.9280 C.2   726  GLY726      0.2309
    176  O         30.2030   15.0140   31.7650 O.2   726  GLY726     -0.2863
@<TRIPOS>BOND
     1   135   136    1
     2   136   139    1
     3   136   137    1
     4   139   140    1
     5   130   129    2
     6   137   138    2
     7   129   128    1
     8   142   140   ar
     9   142   144   ar
    10   140   141   ar
    11   127   128    1
    12   144   145   ar
    13   128   131    1
    14   141   143   ar
    15   171   172   ar
    16   171   169   ar
    17   172   170   ar
    18    78    79    1
    19   120   119    1
    20   131   132    1
    21   145   143   ar
    22   169   167   ar
    23   170   168   ar
    24   146   147    1
    25    79    82    1
    26    79    80    1
    27   123   126    1
    28   123   122    1
    29   123   124    1
    30   119   121    1
    31   119   116    1
    32    85    87   ar
    33    85    83   ar
    34    87    88   ar
    35   167   168   ar
    36   167   166    1
    37   132   133    1
    38    82    83    1
    39    80    81    2
    40   124   125    2
    41    83    84   ar
    42   105   104   ar
    43   152   150    1
    44   106   104   ar
    45   147   148    1
    46   147   150    1
    47    73    72    2
    48   116   117    1
    49   116   115    1
    50   149   148    2
    51   117   118    2
    52    88    89    1
    53    88    86   ar
    54   166   163    1
    55   104   103    1
    56   134   133    1
    57   148   154   am
    58   150   151    1
    59   157   156    2
    60    84    86   ar
    61    72    71    1
    62   151   153    1
    63   163   164    1
    64   163   162    1
    65   165   164    2
    66   115   109   am
    67   156   162   am
    68   156   155    1
    69   103   102    1
    70   154   155    1
    71    71    70    1
    72    71    74    1
    73   164   173   am
    74   110   109    2
    75   109   108    1
    76   102    99    1
    77   155   158    1
    78   158   159    1
    79    74    75    1
    80    77    75   ar
    81   101   100    2
    82   173   174    1
    83    75    76   ar
    84   100   107   am
    85   100    99    1
    86   108   107    1
    87   108   111    1
    88   175   174    1
    89   175   176    2
    90    99    98    1
    91   113   111    1
    92    98    92   am
    93   159   160   ar
    94   159   161   ar
    95    96    94    1
    96   111   112    1
    97    92    91    1
    98    92    93    2
    99    95    94    1
   100    95    97    1
   101    94    91    1
   102    91    90    1
   103   112   114    1
   104    44    43   ar
   105    44    42   ar
   106    43    41   ar
   107    52    50    1
   108    42    40   ar
   109    50    49    1
   110    41    38   ar
   111    61    60    1
   112    40    38   ar
   113    40    39   ar
   114    49    51    1
   115    49    46    1
   116    69    67   ar
   117    67    66    1
   118    67    68   ar
   119    66    63    1
   120    38    36   ar
   121    45    46    1
   122     7     8    1
   123     7     6    1
   124    60    59    1
   125    39    37   ar
   126    46    47    1
   127    14    13    1
   128    64    63    1
   129    64    65    2
   130    48    47    2
   131    63    62    1
   132     6     5    1
   133    36    37   ar
   134    36    35    1
   135    59    58    1
   136    13    10    1
   137     5     2    1
   138    22    21    1
   139    22    23    1
   140    10     9    1
   141    10    11    1
   142    35    32    1
   143    29    28    1
   144    29    30    1
   145    28    25    1
   146    57    58    1
   147    57    54    1
   148    21    20    1
   149    32    33    1
   150    32    31    1
   151     2     3    1
   152     2     1    1
   153    33    34    2
   154    11    12    2
   155    30    24    1
   156     3     4    2
   157    53    54    1
   158    20    19    1
   159    54    55    1
   160    25    24    1
   161    25    26    1
   162    19    16    1
   163    56    55    2
   164    15    16    1
   165    26    27    2
   166    16    17    1
   167    18    17    2
