@<TRIPOS>MOLECULE
tmp/2a5xA02.pdb
 94 89 0 0 0
SMALL
GASTEIGER

@<TRIPOS>ATOM
      1  N          6.6820   70.3070   29.4600 N.3   186  TYR186     -0.1227
      2  CA         6.5840   68.8800   29.7660 C.3   186  TYR186      0.1736
      3  C          6.1410   68.1620   28.5200 C.2   186  TYR186      0.2595
      4  O          5.7450   68.8010   27.5630 O.2   186  TYR186     -0.2718
      5  CB         5.5800   68.6150   30.8990 C.3   186  TYR186      0.0548
      6  CG         4.1400   68.9560   30.5740 C.ar  186  TYR186     -0.0200
      7  CD1        3.2180   67.9590   30.2670 C.ar  186  TYR186     -0.0009
      8  CD2        3.6970   70.2790   30.5840 C.ar  186  TYR186     -0.0009
      9  CE1        1.8860   68.2690   29.9600 C.ar  186  TYR186      0.0417
     10  CE2        2.3770   70.6060   30.2910 C.ar  186  TYR186      0.0417
     11  CZ         1.4810   69.5970   29.9870 C.ar  186  TYR186      0.1957
     12  OH         0.1810   69.9200   29.7110 O.3   186  TYR186     -0.2866
     13  N          6.1820   66.8340   28.5540 N.am  187  VAL187     -0.1966
     14  CA         5.7440   66.0110   27.4330 C.3   187  VAL187      0.1727
     15  C          4.3480   65.4450   27.7300 C.2   187  VAL187      0.2616
     16  O          4.1520   64.7460   28.7380 O.2   187  VAL187     -0.2715
     17  CB         6.7720   64.8660   27.1540 C.3   187  VAL187      0.0290
     18  CG1        6.2710   63.9010   26.0970 C.3   187  VAL187      0.0023
     19  CG2        8.1390   65.4500   26.7440 C.3   187  VAL187      0.0023
     20  N          3.3800   65.7920   26.8780 N.am  188  ALA188     -0.1963
     21  CA         2.0220   65.2230   26.9240 C.3   188  ALA188      0.1728
     22  C          2.0690   63.7370   26.6110 C.2   188  ALA188      0.2616
     23  O          2.7640   63.3260   25.6800 O.2   188  ALA188     -0.2715
     24  CB         1.1140   65.9210   25.9160 C.3   188  ALA188      0.0334
     25  N          1.3330   62.9450   27.3880 N.am  189  LEU189     -0.1977
     26  CA         1.1560   61.5140   27.1180 C.3   189  LEU189      0.1596
     27  C          0.3990   61.3300   25.8090 C.2   189  LEU189      0.2287
     28  O          0.6240   60.3640   25.0740 O.2   189  LEU189     -0.2864
     29  CB         0.3930   60.8340   28.2650 C.3   189  LEU189      0.0297
     30  CG         0.2390   59.3040   28.2630 C.3   189  LEU189      0.0022
     31  CD1        1.6010   58.6140   28.1500 C.3   189  LEU189      0.0001
     32  CD2       -0.5030   58.8170   29.5310 C.3   189  LEU189      0.0001
     33  N         -4.2790   66.7380   25.1750 N.3   194  GLU194     -0.1245
     34  CA        -3.6790   67.9040   25.7880 C.3   194  GLU194      0.1567
     35  C         -4.0600   69.2230   25.0830 C.2   194  GLU194      0.2260
     36  O         -4.4340   70.2070   25.7370 O.2   194  GLU194     -0.2867
     37  CB        -2.1640   67.7170   25.8640 C.3   194  GLU194      0.0388
     38  CG        -1.5180   68.2630   27.1520 C.3   194  GLU194      0.1160
     39  CD        -1.8140   67.4390   28.4140 C.2   194  GLU194      0.3649
     40  OE1       -2.5100   66.4040   28.3160 O.co2 194  GLU194     -0.2457
     41  OE2       -1.3310   67.8220   29.5070 O.co2 194  GLU194     -0.2457
     42  N         -6.4570   74.9680   32.7410 N.3   203  SER203     -0.1202
     43  CA        -5.8790   74.1250   33.7790 C.3   203  SER203      0.2020
     44  C         -4.4040   73.7540   33.5740 C.2   203  SER203      0.2618
     45  O         -3.7590   73.2220   34.4810 O.2   203  SER203     -0.2717
     46  CB        -6.7410   72.8810   33.9870 C.3   203  SER203      0.2103
     47  OG        -6.7160   72.0640   32.8440 O.3   203  SER203     -0.2182
     48  N         -3.8750   74.0490   32.3910 N.am  204  LEU204     -0.1979
     49  CA        -2.4770   73.7630   32.0590 C.3   204  LEU204      0.1596
     50  C         -1.6440   75.0390   31.9920 C.2   204  LEU204      0.2287
     51  O         -0.4390   74.9880   31.7610 O.2   204  LEU204     -0.2864
     52  CB        -2.3830   73.0290   30.7190 C.3   204  LEU204      0.0297
     53  CG        -3.2090   71.7560   30.5100 C.3   204  LEU204      0.0022
     54  CD1       -2.8670   71.1730   29.1450 C.3   204  LEU204      0.0001
     55  CD2       -3.0070   70.7190   31.6290 C.3   204  LEU204      0.0001
     56  N          0.4530   78.2420   33.0730 N.3   206  LYS206     -0.1245
     57  CA         1.4020   78.5770   34.1190 C.3   206  LYS206      0.1561
     58  C          1.8550   80.0120   33.9900 C.2   206  LYS206      0.2260
     59  O          1.9220   80.5530   32.8870 O.2   206  LYS206     -0.2867
     60  CB         2.6300   77.6720   34.0450 C.3   206  LYS206      0.0271
     61  CG         2.4320   76.2920   34.6230 C.3   206  LYS206      0.0035
     62  CD         2.2760   76.3350   36.1250 C.3   206  LYS206      0.0206
     63  CE         2.4920   74.9530   36.7450 C.3   206  LYS206      0.1093
     64  NZ         1.5670   73.9050   36.2040 N.3   206  LYS206     -0.1314
     65  N          3.7630   74.7720   26.5020 N.3   222  ARG222     -0.1245
     66  CA         4.4500   73.9240   27.4650 C.3   222  ARG222      0.1563
     67  C          4.7470   72.5430   26.9100 C.2   222  ARG222      0.2260
     68  O          5.8570   72.0290   27.0790 O.2   222  ARG222     -0.2867
     69  CB         3.6320   73.7930   28.7550 C.3   222  ARG222      0.0307
     70  CG         3.5820   75.0580   29.5660 C.3   222  ARG222      0.0489
     71  CD         2.7460   74.9090   30.8120 C.3   222  ARG222      0.2205
     72  NE         3.3550   73.9590   31.7390 N.pl3 222  ARG222     -0.0865
     73  CZ         2.6880   73.2590   32.6510 C.cat 222  ARG222      0.5346
     74  NH1        1.3690   73.3660   32.7760 N.pl3 222  ARG222      0.1354
     75  NH2        3.3480   72.4180   33.4210 N.pl3 222  ARG222      0.1354
     76  N          9.5230   66.4530   32.2060 N.3   275  PRO275     -0.2102
     77  CA         8.5820   65.5790   32.9070 C.3   275  PRO275      0.1504
     78  C          7.6910   64.8590   31.8900 C.2   275  PRO275      0.2576
     79  O          7.3800   65.4230   30.8340 O.2   275  PRO275     -0.2718
     80  CB         7.7580   66.5560   33.7450 C.3   275  PRO275      0.0282
     81  CG         8.6830   67.7320   33.9700 C.3   275  PRO275      0.0208
     82  CD         9.4910   67.8410   32.7210 C.3   275  PRO275      0.0893
     83  N          7.3330   63.6100   32.1700 N.am  276  GLY276     -0.1957
     84  CA         6.4350   62.8600   31.2960 C.3   276  GLY276      0.1869
     85  C          7.0940   62.2150   30.0890 C.2   276  GLY276      0.2309
     86  O          6.4630   61.4100   29.4030 O.2   276  GLY276     -0.2863
     87  N          7.1530   58.1680   30.1850 N.3   279  ASP279     -0.1239
     88  CA         5.8450   57.5220   29.9760 C.3   279  ASP279      0.1674
     89  C          5.4290   57.5890   28.5300 C.2   279  ASP279      0.2266
     90  O          4.7050   56.7250   28.0450 O.2   279  ASP279     -0.2867
     91  CB         4.7560   58.1890   30.8170 C.3   279  ASP279      0.1410
     92  CG         4.8920   57.8930   32.3050 C.2   279  ASP279      0.3668
     93  OD1        5.7210   57.0360   32.6820 O.co2 279  ASP279     -0.2456
     94  OD2        4.1600   58.5180   33.1080 O.co2 279  ASP279     -0.2456
@<TRIPOS>BOND
     1    28    27    2
     2    35    36    2
     3    35    34    1
     4    33    34    1
     5    23    22    2
     6    34    37    1
     7    27    26    1
     8    37    38    1
     9    24    21    1
    10    18    17    1
    11    65    66    1
    12    22    21    1
    13    22    25   am
    14    19    17    1
    15    20    21    1
    16    20    15   am
    17    67    68    2
    18    67    66    1
    19    26    25    1
    20    26    29    1
    21    38    39    1
    22    17    14    1
    23    14    15    1
    24    14    13    1
    25    66    69    1
    26     4     3    2
    27    15    16    2
    28    90    89    2
    29    31    30    1
    30    30    29    1
    31    30    32    1
    32    40    39   ar
    33    39    41   ar
    34     3    13   am
    35     3     2    1
    36    89    88    1
    37    69    70    1
    38    54    53    1
    39    86    85    2
    40     1     2    1
    41    70    71    1
    42    12    11    1
    43     2     5    1
    44     9    11   ar
    45     9     7   ar
    46    88    87    1
    47    88    91    1
    48    11    10   ar
    49    85    84    1
    50     7     6   ar
    51    10     8   ar
    52    53    52    1
    53    53    55    1
    54     6     8   ar
    55     6     5    1
    56    52    49    1
    57    71    72    1
    58    91    92    1
    59    79    78    2
    60    84    83    1
    61    72    73    2
    62    51    50    2
    63    78    83   am
    64    78    77    1
    65    50    49    1
    66    49    48    1
    67    76    82    1
    68    76    77    1
    69    92    93   ar
    70    92    94   ar
    71    48    44   am
    72    73    74    1
    73    73    75    1
    74    82    81    1
    75    42    43    1
    76    47    46    1
    77    59    58    2
    78    77    80    1
    79    56    57    1
    80    44    43    1
    81    44    45    2
    82    80    81    1
    83    43    46    1
    84    58    57    1
    85    60    57    1
    86    60    61    1
    87    61    62    1
    88    62    63    1
    89    64    63    1
