@<TRIPOS>MOLECULE
tmp/2a6iB00.pdb
 151 153 0 0 0
SMALL
GASTEIGER

@<TRIPOS>ATOM
      1  N         27.4900  -10.7370   50.3440 N.3    30  THR30      -0.1203
      2  CA        27.9240   -9.6600   51.2310 C.3    30  THR30       0.1994
      3  C         29.3650   -9.2110   51.0080 C.2    30  THR30       0.2619
      4  O         29.7600   -8.1240   51.4320 O.2    30  THR30      -0.2717
      5  CB        27.7440  -10.0740   52.7140 C.3    30  THR30       0.1784
      6  OG1       28.4260  -11.3120   52.9500 O.3    30  THR30      -0.2211
      7  CG2       26.2710  -10.2540   53.0450 C.3    30  THR30       0.0376
      8  N         30.1450  -10.0420   50.3290 N.am   31  SER31      -0.1937
      9  CA        31.5440   -9.7330   50.0590 C.3    31  SER31       0.2055
     10  C         31.7360   -8.8010   48.8670 C.2    31  SER31       0.2643
     11  O         32.8730   -8.4820   48.5100 O.2    31  SER31      -0.2714
     12  CB        32.3230  -11.0240   49.7830 C.3    31  SER31       0.2130
     13  OG        32.1920  -11.9530   50.8430 O.3    31  SER31      -0.2179
     14  N         30.6450   -8.3720   48.2390 N.am   32  TYR32      -0.1959
     15  CA        30.7560   -7.5170   47.0760 C.3    32  TYR32       0.1771
     16  C         29.6690   -6.5100   46.9390 C.2    32  TYR32       0.2620
     17  O         28.5170   -6.7340   47.3170 O.2    32  TYR32      -0.2715
     18  CB        30.7990   -8.2860   45.7810 C.3    32  TYR32       0.0574
     19  CG        31.8500   -9.3460   45.6780 C.ar   32  TYR32      -0.0198
     20  CD1       31.6390  -10.6210   46.1970 C.ar   32  TYR32      -0.0009
     21  CD2       33.0330   -9.0930   45.0220 C.ar   32  TYR32      -0.0009
     22  CE1       32.6060  -11.6220   46.0480 C.ar   32  TYR32       0.0417
     23  CE2       34.0170  -10.0720   44.8730 C.ar   32  TYR32       0.0417
     24  CZ        33.8000  -11.3360   45.3860 C.ar   32  TYR32       0.1957
     25  OH        34.7800  -12.3020   45.2510 O.3    32  TYR32      -0.2866
     26  N         30.0040   -5.3990   46.3020 N.am   33  GLY33      -0.1954
     27  CA        28.9870   -4.4110   46.1470 C.3    33  GLY33       0.1869
     28  C         28.2480   -4.4820   44.8720 C.2    33  GLY33       0.2309
     29  O         28.6660   -5.0980   43.8920 O.2    33  GLY33      -0.2863
     30  N         26.3490   -2.1560   41.9830 N.3    35  ASN35      -0.1240
     31  CA        26.1500   -0.8410   41.3690 C.3    35  ASN35       0.1653
     32  C         24.9780   -0.9050   40.3840 C.2    35  ASN35       0.2266
     33  O         24.6580   -1.9720   39.8380 O.2    35  ASN35      -0.2867
     34  CB        27.3910   -0.3940   40.5870 C.3    35  ASN35       0.1155
     35  CG        28.6300   -0.2980   41.4560 C.2    35  ASN35       0.2627
     36  OD1       29.0500   -1.2850   42.0420 O.2    35  ASN35      -0.2716
     37  ND2       29.2170    0.8940   41.5440 N.am   35  ASN35      -0.0877
     38  N         25.9310    6.1050   35.8280 N.3    47  TRP47      -0.1241
     39  CA        26.1230    5.4110   37.0880 C.3    47  TRP47       0.1605
     40  C         25.0820    6.0160   38.0230 C.2    47  TRP47       0.2264
     41  O         25.0750    7.2250   38.2410 O.2    47  TRP47      -0.2867
     42  CB        27.5270    5.6650   37.6240 C.3    47  TRP47       0.0550
     43  CG        27.8260    4.8640   38.8320 C.ar   47  TRP47       0.0003
     44  CD1       27.9530    3.5100   38.9010 C.ar   47  TRP47       0.0946
     45  CD2       27.9640    5.3520   40.1680 C.ar   47  TRP47       0.0152
     46  NE1       28.1530    3.1200   40.2010 N.ar   47  TRP47      -0.2442
     47  CE2       28.1640    4.2340   41.0020 C.ar   47  TRP47       0.0810
     48  CE3       27.9320    6.6300   40.7460 C.ar   47  TRP47       0.0012
     49  CZ2       28.3330    4.3470   42.3810 C.ar   47  TRP47       0.0191
     50  CZ3       28.0980    6.7480   42.1190 C.ar   47  TRP47       0.0001
     51  CH2       28.2970    5.6100   42.9210 C.ar   47  TRP47       0.0015
     52  N         25.6220    3.0280   44.3060 N.3    50  TYR50      -0.1241
     53  CA        26.2560    1.8040   44.7530 C.3    50  TYR50       0.1605
     54  C         25.7700    1.4010   46.1470 C.2    50  TYR50       0.2264
     55  O         25.4170    2.2690   46.9440 O.2    50  TYR50      -0.2867
     56  CB        27.7730    2.0520   44.7470 C.3    50  TYR50       0.0534
     57  CG        28.5030    1.4520   45.9100 C.ar   50  TYR50      -0.0201
     58  CD1       28.5590    0.0880   46.0610 C.ar   50  TYR50      -0.0009
     59  CD2       29.0840    2.2460   46.9020 C.ar   50  TYR50      -0.0009
     60  CE1       29.1600   -0.4900   47.1620 C.ar   50  TYR50       0.0417
     61  CE2       29.7050    1.6600   48.0200 C.ar   50  TYR50       0.0417
     62  CZ        29.7320    0.2790   48.1310 C.ar   50  TYR50       0.1957
     63  OH        30.3490   -0.3770   49.1770 O.3    50  TYR50      -0.2866
     64  N         26.5360   -1.5080   49.5440 N.3    52  ASN52      -0.1240
     65  CA        27.3350   -2.5560   50.1700 C.3    52  ASN52       0.1653
     66  C         26.3980   -3.4530   50.9820 C.2    52  ASN52       0.2266
     67  O         25.8690   -3.0460   52.0140 O.2    52  ASN52      -0.2867
     68  CB        28.3840   -1.9420   51.0940 C.3    52  ASN52       0.1155
     69  CG        29.2140   -2.9880   51.8110 C.2    52  ASN52       0.2627
     70  OD1       28.8940   -4.1790   51.7830 O.2    52  ASN52      -0.2716
     71  ND2       30.2800   -2.5470   52.4690 N.am   52  ASN52      -0.0877
     72  N         30.9600   -5.2050   41.9730 N.3    99  SER99      -0.1202
     73  CA        32.2060   -4.4620   42.0120 C.3    99  SER99       0.2020
     74  C         33.2820   -5.2810   42.7000 C.2    99  SER99       0.2619
     75  O         33.0040   -5.9970   43.6530 O.2    99  SER99      -0.2717
     76  CB        32.0200   -3.1640   42.7630 C.3    99  SER99       0.2103
     77  OG        30.9270   -2.4640   42.2390 O.3    99  SER99      -0.2182
     78  N         34.4970   -5.1820   42.1840 N.am  100  VAL100     -0.1965
     79  CA        35.6410   -5.8600   42.7310 C.3   100  VAL100      0.1727
     80  C         36.6730   -4.8050   42.9730 C.2   100  VAL100      0.2616
     81  O         36.6660   -3.7120   42.3700 O.2   100  VAL100     -0.2715
     82  CB        36.2380   -6.9040   41.7400 C.3   100  VAL100      0.0290
     83  CG1       37.3940   -7.6460   42.3890 C.3   100  VAL100      0.0023
     84  CG2       35.1500   -7.8950   41.3140 C.3   100  VAL100      0.0023
     85  N         37.5350   -5.1210   43.9230 N.am  101  TYR101     -0.1960
     86  CA        38.6310   -4.2600   44.3080 C.3   101  TYR101      0.1771
     87  C         39.8170   -4.8420   43.5790 C.2   101  TYR101      0.2620
     88  O         39.9720   -6.0490   43.4300 O.2   101  TYR101     -0.2715
     89  CB        38.9410   -4.3980   45.7780 C.3   101  TYR101      0.0574
     90  CG        39.6860   -3.2850   46.4200 C.ar  101  TYR101     -0.0198
     91  CD1       39.0200   -2.2080   46.9580 C.ar  101  TYR101     -0.0009
     92  CD2       41.0580   -3.2950   46.4880 C.ar  101  TYR101     -0.0009
     93  CE1       39.6950   -1.1720   47.5620 C.ar  101  TYR101      0.0417
     94  CE2       41.7240   -2.2270   47.1010 C.ar  101  TYR101      0.0417
     95  CZ        41.0610   -1.1870   47.6250 C.ar  101  TYR101      0.1957
     96  OH        41.7500   -0.1510   48.2140 O.3   101  TYR101     -0.2866
     97  N         40.5960   -3.9180   43.0710 N.am  102  TYR102     -0.1960
     98  CA        41.8520   -4.2160   42.4330 C.3   102  TYR102      0.1771
     99  C         42.6560   -2.9470   42.5780 C.2   102  TYR102      0.2620
    100  O         42.1530   -1.8460   42.2970 O.2   102  TYR102     -0.2715
    101  CB        41.7760   -4.5370   40.9540 C.3   102  TYR102      0.0574
    102  CG        43.1990   -4.7140   40.4800 C.ar  102  TYR102     -0.0198
    103  CD1       43.8730   -5.9100   40.6870 C.ar  102  TYR102     -0.0009
    104  CD2       43.9230   -3.6660   39.9210 C.ar  102  TYR102     -0.0009
    105  CE1       45.1860   -6.0820   40.3800 C.ar  102  TYR102      0.0417
    106  CE2       45.2650   -3.8150   39.6010 C.ar  102  TYR102      0.0417
    107  CZ        45.8830   -5.0330   39.8250 C.ar  102  TYR102      0.1957
    108  OH        47.2060   -5.2140   39.5150 O.3   102  TYR102     -0.2866
    109  N         43.8930   -3.1300   43.0270 N.am  103  GLY103     -0.1940
    110  CA        44.8200   -2.0470   43.2310 C.3   103  GLY103      0.2014
    111  C         44.2150   -0.6730   43.3310 C.2   103  GLY103      0.2639
    112  O         44.1410    0.0500   42.3340 O.2   103  GLY103     -0.2714
    113  N         43.7520   -0.3020   44.5180 N.am  104  GLY104     -0.1954
    114  CA        43.1720    1.0170   44.6690 C.3   104  GLY104      0.1869
    115  C         41.6750    1.1270   44.4580 C.2   104  GLY104      0.2309
    116  O         40.9280    1.1860   45.4260 O.2   104  GLY104     -0.2863
    117  N         37.7460    0.1800   42.4120 N.3   106  TYR106     -0.1227
    118  CA        36.8060   -0.8040   41.8900 C.3   106  TYR106      0.1736
    119  C         36.4410   -0.7520   40.4050 C.2   106  TYR106      0.2595
    120  O         36.7090    0.2200   39.6960 O.2   106  TYR106     -0.2718
    121  CB        35.5230   -0.7070   42.7130 C.3   106  TYR106      0.0548
    122  CG        35.7530   -0.9110   44.1890 C.ar  106  TYR106     -0.0200
    123  CD1       35.8410   -2.1890   44.7200 C.ar  106  TYR106     -0.0009
    124  CD2       35.9150    0.1740   45.0530 C.ar  106  TYR106     -0.0009
    125  CE1       36.0800   -2.3880   46.0700 C.ar  106  TYR106      0.0417
    126  CE2       36.1490   -0.0160   46.4200 C.ar  106  TYR106      0.0417
    127  CZ        36.2220   -1.3020   46.9220 C.ar  106  TYR106      0.1957
    128  OH        36.3660   -1.5170   48.2810 O.3   106  TYR106     -0.2866
    129  N         35.8130   -1.8290   39.9540 N.am  107  TYR107     -0.1962
    130  CA        35.3450   -1.9640   38.5800 C.3   107  TYR107      0.1771
    131  C         34.2180   -3.0050   38.5940 C.2   107  TYR107      0.2619
    132  O         34.0070   -3.6670   39.6080 O.2   107  TYR107     -0.2715
    133  CB        36.5000   -2.3890   37.6680 C.3   107  TYR107      0.0574
    134  CG        37.0790   -3.7440   37.9740 C.ar  107  TYR107     -0.0198
    135  CD1       36.5940   -4.8840   37.3400 C.ar  107  TYR107     -0.0009
    136  CD2       38.1210   -3.8880   38.8910 C.ar  107  TYR107     -0.0009
    137  CE1       37.1260   -6.1290   37.6060 C.ar  107  TYR107      0.0417
    138  CE2       38.6640   -5.1330   39.1660 C.ar  107  TYR107      0.0417
    139  CZ        38.1590   -6.2450   38.5160 C.ar  107  TYR107      0.1957
    140  OH        38.6630   -7.4880   38.7640 O.3   107  TYR107     -0.2866
    141  N         33.4850   -3.1510   37.4930 N.am  108  PHE108     -0.1974
    142  CA        32.3750   -4.1070   37.4670 C.3   108  PHE108      0.1639
    143  C         32.7150   -5.3260   36.6310 C.2   108  PHE108      0.2290
    144  O         32.8690   -5.2260   35.4210 O.2   108  PHE108     -0.2864
    145  CB        31.1130   -3.4400   36.9130 C.3   108  PHE108      0.0560
    146  CG        30.9720   -1.9940   37.3070 C.ar  108  PHE108     -0.0200
    147  CD1       31.2110   -1.5920   38.6170 C.ar  108  PHE108     -0.0042
    148  CD2       30.6070   -1.0370   36.3660 C.ar  108  PHE108     -0.0042
    149  CE1       31.1010   -0.2500   38.9820 C.ar  108  PHE108     -0.0003
    150  CE2       30.4950    0.3000   36.7180 C.ar  108  PHE108     -0.0003
    151  CZ        30.7380    0.6970   38.0310 C.ar  108  PHE108     -0.0000
@<TRIPOS>BOND
     1   144   143    2
     2    38    39    1
     3   148   150   ar
     4   148   146   ar
     5   143   142    1
     6   150   151   ar
     7   145   146    1
     8   145   142    1
     9    39    42    1
    10    39    40    1
    11   146   147   ar
    12   135   137   ar
    13   135   134   ar
    14   142   141    1
    15   141   131   am
    16   137   139   ar
    17    42    43    1
    18   133   134    1
    19   133   130    1
    20   134   136   ar
    21    40    41    2
    22   151   149   ar
    23   139   140    1
    24   139   138   ar
    25   130   131    1
    26   130   129    1
    27   131   132    2
    28   147   149   ar
    29    43    44   ar
    30    43    45   ar
    31   136   138   ar
    32    44    46   ar
    33   108   107    1
    34   106   107   ar
    35   106   104   ar
    36   120   119    2
    37   107   105   ar
    38    33    32    2
    39   104   102   ar
    40   129   119   am
    41    45    48   ar
    42    45    47   ar
    43    46    47   ar
    44   105   103   ar
    45    32    31    1
    46   119   118    1
    47   102   103   ar
    48   102   101    1
    49    34    31    1
    50    34    35    1
    51    48    50   ar
    52   101    98    1
    53    47    49   ar
    54    84    82    1
    55    31    30    1
    56    35    37   am
    57    35    36    2
    58    82    83    1
    59    82    79    1
    60   118   117    1
    61   118   121    1
    62    72    73    1
    63    73    74    1
    64    73    76    1
    65    50    51   ar
    66    78    74   am
    67    78    79    1
    68    77    76    1
    69   100    99    2
    70   112   111    2
    71    81    80    2
    72    49    51   ar
    73    98    99    1
    74    98    97    1
    75    99   109   am
    76    74    75    2
    77   121   122    1
    78    79    80    1
    79    80    85   am
    80   109   110    1
    81    97    87   am
    82   110   111    1
    83   111   113   am
    84    88    87    2
    85    87    86    1
    86    29    28    2
    87    85    86    1
    88   122   123   ar
    89   122   124   ar
    90    52    53    1
    91    86    89    1
    92   115   114    1
    93   115   116    2
    94   113   114    1
    95   123   125   ar
    96    56    53    1
    97    56    57    1
    98    53    54    1
    99    28    27    1
   100    23    21   ar
   101    23    24   ar
   102    21    19   ar
   103   124   126   ar
   104    25    24    1
   105    24    22   ar
   106    19    18    1
   107    19    20   ar
   108    89    90    1
   109    18    15    1
   110    57    58   ar
   111    57    59   ar
   112    22    20   ar
   113    58    60   ar
   114   125   127   ar
   115    54    55    2
   116    27    26    1
   117    26    16   am
   118   126   127   ar
   119    90    92   ar
   120    90    91   ar
   121    92    94   ar
   122    59    61   ar
   123   127   128    1
   124    16    15    1
   125    16    17    2
   126    91    93   ar
   127    15    14    1
   128    94    95   ar
   129    60    62   ar
   130    93    95   ar
   131    95    96    1
   132    61    62   ar
   133    62    63    1
   134    14    10   am
   135    11    10    2
   136    10     9    1
   137    64    65    1
   138    12     9    1
   139    12    13    1
   140     9     8    1
   141    65    66    1
   142    65    68    1
   143     8     3   am
   144     1     2    1
   145    66    67    2
   146     3     2    1
   147     3     4    2
   148    68    69    1
   149     2     5    1
   150    70    69    2
   151    69    71   am
   152     5     6    1
   153     5     7    1
