@<TRIPOS>MOLECULE
tmp/2a6kD00.pdb
 109 107 0 0 0
SMALL
GASTEIGER

@<TRIPOS>ATOM
      1  N         22.0680   30.8720  -13.4030 N.3    31  SER31      -0.1202
      2  CA        21.0020   31.4020  -12.5670 C.3    31  SER31       0.2020
      3  C         20.6740   30.6550  -11.2870 C.2    31  SER31       0.2619
      4  O         19.9290   31.1710  -10.4530 O.2    31  SER31      -0.2717
      5  CB        19.7230   31.5770  -13.3900 C.3    31  SER31       0.2103
      6  OG        19.8660   32.6030  -14.3610 O.3    31  SER31      -0.2182
      7  N         21.2120   29.4550  -11.1060 N.am   32  TYR32      -0.1961
      8  CA        20.8980   28.7250   -9.8830 C.3    32  TYR32       0.1771
      9  C         22.1020   28.0720   -9.2310 C.2    32  TYR32       0.2620
     10  O         23.0120   27.5960   -9.9200 O.2    32  TYR32      -0.2715
     11  CB        19.8620   27.6300  -10.1470 C.3    32  TYR32       0.0574
     12  CG        18.5700   28.0750  -10.7930 C.ar   32  TYR32      -0.0198
     13  CD1       18.4570   28.1620  -12.1830 C.ar   32  TYR32      -0.0009
     14  CD2       17.4370   28.3420  -10.0210 C.ar   32  TYR32      -0.0009
     15  CE1       17.2370   28.4920  -12.7940 C.ar   32  TYR32       0.0417
     16  CE2       16.2140   28.6780  -10.6160 C.ar   32  TYR32       0.0417
     17  CZ        16.1160   28.7460  -12.0050 C.ar   32  TYR32       0.1957
     18  OH        14.9000   29.0460  -12.5990 O.3    32  TYR32      -0.2866
     19  N         22.0830   28.0350   -7.8980 N.am   33  GLY33      -0.1954
     20  CA        23.1580   27.4050   -7.1540 C.3    33  GLY33       0.1869
     21  C         23.1770   25.8860   -7.3300 C.2    33  GLY33       0.2309
     22  O         22.2620   25.2850   -7.9070 O.2    33  GLY33      -0.2863
     23  N         24.8360   17.8680    4.2010 N.3    47  TRP47      -0.1241
     24  CA        24.9770   18.9330    3.2190 C.3    47  TRP47       0.1605
     25  C         26.4530   19.2530    3.0870 C.2    47  TRP47       0.2264
     26  O         27.0640   19.7810    4.0120 O.2    47  TRP47      -0.2867
     27  CB        24.2280   20.1910    3.6490 C.3    47  TRP47       0.0550
     28  CG        24.5550   21.3690    2.7670 C.ar   47  TRP47       0.0003
     29  CD1       24.2980   21.4930    1.4250 C.ar   47  TRP47       0.0946
     30  CD2       25.2360   22.5690    3.1550 C.ar   47  TRP47       0.0152
     31  NE1       24.7770   22.6940    0.9570 N.ar   47  TRP47      -0.2442
     32  CE2       25.3570   23.3740    1.9960 C.ar   47  TRP47       0.0810
     33  CE3       25.7550   23.0430    4.3670 C.ar   47  TRP47       0.0012
     34  CZ2       25.9820   24.6280    2.0160 C.ar   47  TRP47       0.0191
     35  CZ3       26.3760   24.2900    4.3850 C.ar   47  TRP47       0.0001
     36  CH2       26.4830   25.0670    3.2160 C.ar   47  TRP47       0.0015
     37  N         27.8060   24.6530   -0.9840 N.3    50  TYR50      -0.1241
     38  CA        27.0660   25.3480   -2.0350 C.3    50  TYR50       0.1605
     39  C         27.9670   26.1960   -2.9650 C.2    50  TYR50       0.2264
     40  O         28.9740   26.7380   -2.5240 O.2    50  TYR50      -0.2867
     41  CB        25.9570   26.1940   -1.3690 C.3    50  TYR50       0.0534
     42  CG        25.8850   27.6650   -1.7490 C.ar   50  TYR50      -0.0201
     43  CD1       25.6490   28.0620   -3.0660 C.ar   50  TYR50      -0.0009
     44  CD2       26.0350   28.6600   -0.7780 C.ar   50  TYR50      -0.0009
     45  CE1       25.5660   29.4080   -3.4100 C.ar   50  TYR50       0.0417
     46  CE2       25.9510   30.0120   -1.1070 C.ar   50  TYR50       0.0417
     47  CZ        25.7180   30.3790   -2.4240 C.ar   50  TYR50       0.1957
     48  OH        25.6430   31.7150   -2.7500 O.3    50  TYR50      -0.2866
     49  N         27.6450   29.0590   -6.4540 N.3    52  ASN52      -0.1240
     50  CA        26.8480   29.7720   -7.4520 C.3    52  ASN52       0.1653
     51  C         27.6900   29.8870   -8.7030 C.2    52  ASN52       0.2266
     52  O         28.7310   30.5290   -8.7150 O.2    52  ASN52      -0.2867
     53  CB        26.4590   31.1730   -6.9780 C.3    52  ASN52       0.1155
     54  CG        25.6940   31.9730   -8.0510 C.2    52  ASN52       0.2627
     55  OD1       24.4930   32.2330   -7.9210 O.2    52  ASN52      -0.2716
     56  ND2       26.3940   32.3670   -9.1080 N.am   52  ASN52      -0.0877
     57  N         29.0260   33.8680   -9.9900 N.3    55  ASN55      -0.1240
     58  CA        30.2120   34.4700   -9.4020 C.3    55  ASN55       0.1653
     59  C         31.2280   33.3730   -9.1200 C.2    55  ASN55       0.2266
     60  O         32.3590   33.4230   -9.6010 O.2    55  ASN55      -0.2867
     61  CB        29.8420   35.1780   -8.0980 C.3    55  ASN55       0.1155
     62  CG        28.4240   34.8820   -7.6640 C.2    55  ASN55       0.2627
     63  OD1       27.4750   35.4010   -8.2410 O.2    55  ASN55      -0.2716
     64  ND2       28.2720   34.0310   -6.6530 N.am   55  ASN55      -0.0877
     65  N         30.9520   32.1220   -5.8820 N.3    57  TYR57      -0.1241
     66  CA        30.8500   32.1990   -4.4340 C.3    57  TYR57       0.1605
     67  C         30.5030   30.8160   -3.9270 C.2    57  TYR57       0.2264
     68  O         29.4400   30.2650   -4.2420 O.2    57  TYR57      -0.2867
     69  CB        29.7530   33.1740   -4.0100 C.3    57  TYR57       0.0534
     70  CG        29.5150   33.1980   -2.5130 C.ar   57  TYR57      -0.0201
     71  CD1       30.5390   33.5410   -1.6340 C.ar   57  TYR57      -0.0009
     72  CD2       28.2550   32.9190   -1.9780 C.ar   57  TYR57      -0.0009
     73  CE1       30.3220   33.6190   -0.2580 C.ar   57  TYR57       0.0417
     74  CE2       28.0210   32.9920   -0.6010 C.ar   57  TYR57       0.0417
     75  CZ        29.0650   33.3480    0.2560 C.ar   57  TYR57       0.1957
     76  OH        28.8770   33.4560    1.6240 O.3    57  TYR57      -0.2866
     77  N         30.2390   28.2190   -0.5090 N.3    59  LYS59      -0.1245
     78  CA        30.0310   28.2150    0.9320 C.3    59  LYS59       0.1561
     79  C         30.0770   26.7540    1.4130 C.2    59  LYS59       0.2260
     80  O         29.3770   25.8850    0.8740 O.2    59  LYS59      -0.2867
     81  CB        28.6780   28.8730    1.2350 C.3    59  LYS59       0.0271
     82  CG        28.3390   29.0110    2.6970 C.3    59  LYS59       0.0035
     83  CD        29.3480   29.8580    3.4290 C.3    59  LYS59       0.0206
     84  CE        28.9970   29.9270    4.9070 C.3    59  LYS59       0.1093
     85  NZ        29.9710   30.7580    5.6610 N.3    59  LYS59      -0.1314
     86  N         15.1500   29.9960   -4.9420 N.3   101  TYR101     -0.1241
     87  CA        14.7370   30.9680   -3.9450 C.3   101  TYR101      0.1605
     88  C         13.2240   31.0890   -4.1030 C.2   101  TYR101      0.2264
     89  O         12.7220   31.3000   -5.2110 O.2   101  TYR101     -0.2867
     90  CB        15.4040   32.3230   -4.1910 C.3   101  TYR101      0.0534
     91  CG        15.0090   33.3610   -3.1640 C.ar  101  TYR101     -0.0201
     92  CD1       15.5240   33.3220   -1.8640 C.ar  101  TYR101     -0.0009
     93  CD2       14.0830   34.3590   -3.4770 C.ar  101  TYR101     -0.0009
     94  CE1       15.1270   34.2490   -0.9070 C.ar  101  TYR101      0.0417
     95  CE2       13.6790   35.2840   -2.5280 C.ar  101  TYR101      0.0417
     96  CZ        14.2040   35.2250   -1.2490 C.ar  101  TYR101      0.1957
     97  OH        13.8070   36.1550   -0.3220 O.3   101  TYR101     -0.2866
     98  N         16.0570   28.9970    0.5530 N.3   106  TYR106     -0.1241
     99  CA        16.1120   28.1850   -0.6640 C.3   106  TYR106      0.1605
    100  C         15.7530   26.7150   -0.4050 C.2   106  TYR106      0.2264
    101  O         15.5350   26.3070    0.7360 O.2   106  TYR106     -0.2867
    102  CB        17.5310   28.2480   -1.2540 C.3   106  TYR106      0.0534
    103  CG        18.0340   29.6430   -1.5430 C.ar  106  TYR106     -0.0201
    104  CD1       18.4620   29.9960   -2.8270 C.ar  106  TYR106     -0.0009
    105  CD2       18.0350   30.6230   -0.5470 C.ar  106  TYR106     -0.0009
    106  CE1       18.8580   31.2760   -3.1000 C.ar  106  TYR106      0.0417
    107  CE2       18.4270   31.8840   -0.8100 C.ar  106  TYR106      0.0417
    108  CZ        18.8260   32.2040   -2.0680 C.ar  106  TYR106      0.1957
    109  OH        19.1550   33.4950   -2.2220 O.3   106  TYR106     -0.2866
@<TRIPOS>BOND
     1     6     5    1
     2     1     2    1
     3     5     2    1
     4    15    13   ar
     5    15    17   ar
     6    18    17    1
     7     2     3    1
     8    13    12   ar
     9    17    16   ar
    10     3     7   am
    11     3     4    2
    12     7     8    1
    13    12    11    1
    14    12    14   ar
    15    16    14   ar
    16    11     8    1
    17    57    58    1
    18    10     9    2
    19     8     9    1
    20    60    59    2
    21    58    59    1
    22    58    61    1
    23     9    19   am
    24    56    54   am
    25    52    51    2
    26    51    50    1
    27    63    62    2
    28    61    62    1
    29    54    55    2
    30    54    53    1
    31    22    21    2
    32    19    20    1
    33    62    64   am
    34    50    53    1
    35    50    49    1
    36    21    20    1
    37    65    66    1
    38    89    88    2
    39    86    87    1
    40    66    69    1
    41    66    67    1
    42    68    67    2
    43    90    87    1
    44    90    91    1
    45    88    87    1
    46    69    70    1
    47    93    91   ar
    48    93    95   ar
    49    45    43   ar
    50    45    47   ar
    51    91    92   ar
    52   106   104   ar
    53   106   108   ar
    54    43    42   ar
    55    39    40    2
    56    39    38    1
    57   104   103   ar
    58    48    47    1
    59    95    96   ar
    60    70    72   ar
    61    70    71   ar
    62    47    46   ar
    63   109   108    1
    64   108   107   ar
    65    38    41    1
    66    38    37    1
    67    72    74   ar
    68    92    94   ar
    69    42    41    1
    70    42    44   ar
    71    71    73   ar
    72   103   102    1
    73   103   105   ar
    74   102    99    1
    75    96    94   ar
    76    96    97    1
    77    46    44   ar
    78   107   105   ar
    79    99   100    1
    80    99    98    1
    81    74    75   ar
    82    77    78    1
    83   100   101    2
    84    73    75   ar
    85    75    76    1
    86    80    79    2
    87    78    81    1
    88    78    79    1
    89    31    29   ar
    90    31    32   ar
    91    81    82    1
    92    29    28   ar
    93    32    34   ar
    94    32    30   ar
    95    34    36   ar
    96    82    83    1
    97    28    30   ar
    98    28    27    1
    99    25    24    1
   100    25    26    2
   101    30    33   ar
   102    36    35   ar
   103    24    27    1
   104    24    23    1
   105    83    84    1
   106    33    35   ar
   107    84    85    1
