@<TRIPOS>MOLECULE
tmp/2a73B00.pdb
 127 117 0 0 0
SMALL
GASTEIGER

@<TRIPOS>ATOM
      1  N        -46.5620  -48.8800  -52.8460 N.3   256  ARG256     -0.1245
      2  CA       -45.7190  -47.7220  -52.5560 C.3   256  ARG256      0.1563
      3  C        -46.5410  -46.5060  -52.1440 C.2   256  ARG256      0.2260
      4  O        -47.6120  -46.2560  -52.6950 O.2   256  ARG256     -0.2867
      5  CB       -44.8610  -47.3730  -53.7710 C.3   256  ARG256      0.0307
      6  CG       -43.4320  -47.8610  -53.6780 C.3   256  ARG256      0.0489
      7  CD       -42.4720  -46.8540  -53.0670 C.3   256  ARG256      0.2205
      8  NE       -41.1020  -47.3590  -53.0490 N.pl3 256  ARG256     -0.0865
      9  CZ       -40.2500  -47.2510  -54.0610 C.cat 256  ARG256      0.5346
     10  NH1      -40.6150  -46.6350  -55.1800 N.pl3 256  ARG256      0.1354
     11  NH2      -39.0260  -47.7510  -53.9530 N.pl3 256  ARG256      0.1354
     12  N        -45.9240  -42.3380  -50.9650 N.3   258  ASN258     -0.1240
     13  CA       -45.3010  -41.0890  -50.5400 C.3   258  ASN258      0.1653
     14  C        -46.2650  -40.2590  -49.7020 C.2   258  ASN258      0.2266
     15  O        -47.1490  -39.5910  -50.2370 O.2   258  ASN258     -0.2867
     16  CB       -44.8290  -40.2790  -51.7510 C.3   258  ASN258      0.1155
     17  CG       -43.5470  -40.8230  -52.3570 C.2   258  ASN258      0.2627
     18  OD1      -43.1130  -41.9290  -52.0350 O.2   258  ASN258     -0.2716
     19  ND2      -42.9400  -40.0460  -53.2500 N.am  258  ASN258     -0.0877
     20  N        -38.4460  -44.3420  -45.8570 N.3   296  GLU296     -0.1245
     21  CA       -37.4920  -43.2470  -45.9550 C.3   296  GLU296      0.1567
     22  C        -38.1690  -41.8860  -45.8660 C.2   296  GLU296      0.2260
     23  O        -39.1400  -41.6150  -46.5710 O.2   296  GLU296     -0.2867
     24  CB       -36.6490  -43.3620  -47.2310 C.3   296  GLU296      0.0388
     25  CG       -37.1300  -42.5090  -48.3930 C.3   296  GLU296      0.1160
     26  CD       -35.9890  -41.8440  -49.1410 C.2   296  GLU296      0.3649
     27  OE1      -36.2480  -40.8700  -49.8820 O.co2 296  GLU296     -0.2457
     28  OE2      -34.8310  -42.2880  -48.9800 O.co2 296  GLU296     -0.2457
     29  N        -37.8800  -37.9410  -46.4260 N.3   298  ARG298     -0.1245
     30  CA       -37.1310  -36.9380  -47.1680 C.3   298  ARG298      0.1563
     31  C        -37.5160  -35.5320  -46.7280 C.2   298  ARG298      0.2260
     32  O        -38.6370  -35.0790  -46.9670 O.2   298  ARG298     -0.2867
     33  CB       -37.3470  -37.1030  -48.6720 C.3   298  ARG298      0.0307
     34  CG       -36.2200  -36.5420  -49.5140 C.3   298  ARG298      0.0489
     35  CD       -36.6860  -35.7630  -50.7300 C.3   298  ARG298      0.2205
     36  NE       -35.5750  -35.1150  -51.4210 N.pl3 298  ARG298     -0.0865
     37  CZ       -35.7140  -34.3000  -52.4580 C.cat 298  ARG298      0.5346
     38  NH1      -36.9220  -34.0230  -52.9310 N.pl3 298  ARG298      0.1354
     39  NH2      -34.6450  -33.7590  -53.0260 N.pl3 298  ARG298      0.1354
     40  N        -35.5600  -28.7360  -66.1480 N.3   315  ASP315     -0.1239
     41  CA       -34.9400  -29.9930  -66.5540 C.3   315  ASP315      0.1674
     42  C        -35.9290  -30.9400  -67.2190 C.2   315  ASP315      0.2266
     43  O        -37.0600  -31.0920  -66.7610 O.2   315  ASP315     -0.2867
     44  CB       -34.2730  -30.6800  -65.3630 C.3   315  ASP315      0.1410
     45  CG       -32.7730  -30.8160  -65.5370 C.2   315  ASP315      0.3668
     46  OD1      -32.0590  -29.7960  -65.4040 O.co2 315  ASP315     -0.2456
     47  OD2      -32.2190  -31.9010  -65.8190 O.co2 315  ASP315     -0.2456
     48  N        -35.8150  -34.2800  -67.5860 N.3   317  GLU317     -0.1231
     49  CA       -36.0320  -35.5720  -66.9470 C.3   317  GLU317      0.1699
     50  C        -36.5330  -35.4560  -65.5080 C.2   317  GLU317      0.2592
     51  O        -36.7390  -36.4660  -64.8340 O.2   317  GLU317     -0.2718
     52  CB       -34.7660  -36.4320  -67.0150 C.3   317  GLU317      0.0402
     53  CG       -34.6680  -37.2880  -68.2700 C.3   317  GLU317      0.1161
     54  CD       -35.9370  -38.0810  -68.5410 C.2   317  GLU317      0.3649
     55  OE1      -36.3430  -38.8820  -67.6690 O.co2 317  GLU317     -0.2457
     56  OE2      -36.5340  -37.9050  -69.6260 O.co2 317  GLU317     -0.2457
     57  N        -36.7470  -34.2260  -65.0490 N.am  318  ARG318     -0.1980
     58  CA       -37.3740  -33.9960  -63.7510 C.3   318  ARG318      0.1597
     59  C        -38.6800  -33.2100  -63.8770 C.2   318  ARG318      0.2287
     60  O        -39.3370  -32.9170  -62.8780 O.2   318  ARG318     -0.2864
     61  CB       -36.4080  -33.2880  -62.7950 C.3   318  ARG318      0.0334
     62  CG       -36.6760  -33.5840  -61.3220 C.3   318  ARG318      0.0492
     63  CD       -35.7820  -32.8310  -60.3470 C.3   318  ARG318      0.2205
     64  NE       -34.4440  -33.4100  -60.2710 N.pl3 318  ARG318     -0.0865
     65  CZ       -33.3730  -32.8950  -60.8620 C.cat 318  ARG318      0.5346
     66  NH1      -33.4730  -31.7730  -61.5640 N.pl3 318  ARG318      0.1354
     67  NH2      -32.1960  -33.4980  -60.7480 N.pl3 318  ARG318      0.1354
     68  N        -41.8620  -34.6650  -62.4210 N.3   321  HIS321     -0.1241
     69  CA       -41.8970  -34.7430  -60.9620 C.3   321  HIS321      0.1621
     70  C        -42.8240  -33.6970  -60.3420 C.2   321  HIS321      0.2264
     71  O        -42.8960  -33.5660  -59.1190 O.2   321  HIS321     -0.2867
     72  CB       -40.4850  -34.6040  -60.3800 C.3   321  HIS321      0.0745
     73  CG       -39.8040  -35.9130  -60.1210 C.ar  321  HIS321      0.0817
     74  ND1      -40.4860  -37.1110  -60.0670 N.ar  321  HIS321     -0.2268
     75  CD2      -38.5060  -36.2090  -59.8680 C.ar  321  HIS321      0.1154
     76  CE1      -39.6360  -38.0880  -59.8040 C.ar  321  HIS321      0.1986
     77  NE2      -38.4280  -37.5670  -59.6800 N.ar  321  HIS321     -0.2212
     78  N        -46.0880  -33.6130  -60.9600 N.3   323  ILE323     -0.1231
     79  CA       -47.4440  -34.1040  -61.1690 C.3   323  ILE323      0.1692
     80  C        -47.5160  -35.6000  -60.8750 C.2   323  ILE323      0.2591
     81  O        -46.7270  -36.3830  -61.4030 O.2   323  ILE323     -0.2718
     82  CB       -47.8910  -33.8150  -62.6200 C.3   323  ILE323      0.0266
     83  CG1      -48.4370  -32.3930  -62.7390 C.3   323  ILE323      0.0019
     84  CG2      -48.9380  -34.8060  -63.0790 C.3   323  ILE323      0.0020
     85  CD1      -47.4920  -31.4370  -63.4290 C.3   323  ILE323      0.0001
     86  N        -48.4540  -35.9900  -60.0180 N.am  324  VAL324     -0.1980
     87  CA       -48.6400  -37.3980  -59.6790 C.3   324  VAL324      0.1595
     88  C        -49.5240  -38.1160  -60.6960 C.2   324  VAL324      0.2287
     89  O        -49.7000  -39.3330  -60.6270 O.2   324  VAL324     -0.2864
     90  CB       -49.2410  -37.5750  -58.2690 C.3   324  VAL324      0.0276
     91  CG1      -48.1480  -37.5500  -57.2150 C.3   324  VAL324      0.0022
     92  CG2      -50.2900  -36.5100  -57.9900 C.3   324  VAL324      0.0022
     93  N        -32.2270  -37.2450  -45.8030 N.3   636  GLU636     -0.1245
     94  CA       -32.9600  -38.5070  -45.7350 C.3   636  GLU636      0.1567
     95  C        -32.7050  -39.2370  -44.4200 C.2   636  GLU636      0.2260
     96  O        -31.5940  -39.2090  -43.8910 O.2   636  GLU636     -0.2867
     97  CB       -32.5880  -39.4150  -46.9100 C.3   636  GLU636      0.0388
     98  CG       -32.9880  -38.8750  -48.2740 C.3   636  GLU636      0.1160
     99  CD       -31.9060  -38.0180  -48.9050 C.2   636  GLU636      0.3649
    100  OE1      -30.7220  -38.4200  -48.8630 O.co2 636  GLU636     -0.2457
    101  OE2      -32.2430  -36.9470  -49.4560 O.co2 636  GLU636     -0.2457
    102  N        -41.6320  -35.4540  -46.3100 N.3   658  VAL658     -0.1245
    103  CA       -42.3790  -36.5470  -46.9330 C.3   658  VAL658      0.1561
    104  C        -41.6960  -37.8900  -46.6920 C.2   658  VAL658      0.2260
    105  O        -40.5070  -38.0450  -46.9690 O.2   658  VAL658     -0.2867
    106  CB       -42.5310  -36.3350  -48.4560 C.3   658  VAL658      0.0252
    107  CG1      -43.2640  -37.5040  -49.0910 C.3   658  VAL658      0.0019
    108  CG2      -43.2550  -35.0320  -48.7490 C.3   658  VAL658      0.0019
    109  N        -41.6370  -42.0830  -47.5290 N.3   660  MET660     -0.1245
    110  CA       -42.0570  -43.1380  -48.4450 C.3   660  MET660      0.1570
    111  C        -42.0290  -44.4990  -47.7580 C.2   660  MET660      0.2261
    112  O        -41.0410  -44.8600  -47.1160 O.2   660  MET660     -0.2867
    113  CB       -41.1630  -43.1530  -49.6850 C.3   660  MET660      0.0387
    114  CG       -41.1720  -44.4670  -50.4460 C.3   660  MET660      0.0595
    115  SD       -39.8130  -44.5780  -51.6260 S.3   660  MET660     -0.1393
    116  CE       -40.5960  -43.9430  -53.1050 C.3   660  MET660      0.0692
    117  N        -42.1930  -46.1530  -63.9180 N.3   751  PHE751     -0.1241
    118  CA       -41.1020  -47.0560  -63.5580 C.3   751  PHE751      0.1605
    119  C        -41.4840  -47.9150  -62.3560 C.2   751  PHE751      0.2264
    120  O        -42.2230  -47.4730  -61.4730 O.2   751  PHE751     -0.2867
    121  CB       -39.8140  -46.2800  -63.2590 C.3   751  PHE751      0.0534
    122  CG       -38.8850  -46.1590  -64.4400 C.ar  751  PHE751     -0.0203
    123  CD1      -38.2070  -44.9730  -64.6880 C.ar  751  PHE751     -0.0042
    124  CD2      -38.6950  -47.2290  -65.3060 C.ar  751  PHE751     -0.0042
    125  CE1      -37.3550  -44.8540  -65.7760 C.ar  751  PHE751     -0.0003
    126  CE2      -37.8450  -47.1170  -66.3980 C.ar  751  PHE751     -0.0003
    127  CZ       -37.1740  -45.9280  -66.6330 C.ar  751  PHE751     -0.0000
@<TRIPOS>BOND
     1    56    54   ar
     2    54    53    1
     3    54    55   ar
     4    53    52    1
     5    48    49    1
     6    42    43    2
     7    42    41    1
     8    52    49    1
     9    49    50    1
    10   127   126   ar
    11   127   125   ar
    12    41    40    1
    13    41    44    1
    14   126   124   ar
    15    47    45   ar
    16   125   123   ar
    17    45    46   ar
    18    45    44    1
    19    50    57   am
    20    50    51    2
    21   124   122   ar
    22    57    58    1
    23   123   122   ar
    24   122   121    1
    25   117   118    1
    26    59    58    1
    27    59    60    2
    28    58    61    1
    29   118   121    1
    30   118   119    1
    31    85    83    1
    32    84    82    1
    33    61    62    1
    34    83    82    1
    35    82    79    1
    36    68    69    1
    37   119   120    2
    38    66    65    1
    39    81    80    2
    40    62    63    1
    41    79    78    1
    42    79    80    1
    43    69    72    1
    44    69    70    1
    45    80    86   am
    46    65    67    1
    47    65    64    2
    48    88    89    2
    49    88    87    1
    50    72    73    1
    51    63    64    1
    52    70    71    2
    53    73    74   ar
    54    73    75   ar
    55    74    76   ar
    56    86    87    1
    57    75    77   ar
    58    76    77   ar
    59    87    90    1
    60    90    92    1
    61    90    91    1
    62    10     9    1
    63     9    11    1
    64     9     8    2
    65     5     6    1
    66     5     2    1
    67     6     7    1
    68    19    17   am
    69   116   115    1
    70     7     8    1
    71    39    37    1
    72    38    37    1
    73     1     2    1
    74     4     3    2
    75     2     3    1
    76    37    36    2
    77    17    18    2
    78    17    16    1
    79    16    13    1
    80   115   114    1
    81    36    35    1
    82    12    13    1
    83    35    34    1
    84    13    14    1
    85   114   113    1
    86    15    14    2
    87    27    26   ar
    88   113   110    1
    89    34    33    1
    90   101    99   ar
    91    26    28   ar
    92    26    25    1
    93   107   106    1
    94    99   100   ar
    95    99    98    1
    96   108   106    1
    97    33    30    1
    98   106   103    1
    99   110   111    1
   100   110   109    1
   101    25    24    1
   102    98    97    1
   103   111   112    2
   104    24    21    1
   105    30    31    1
   106    30    29    1
   107   105   104    2
   108    32    31    2
   109   103   104    1
   110   103   102    1
   111    97    94    1
   112    23    22    2
   113    21    22    1
   114    21    20    1
   115    93    94    1
   116    94    95    1
   117    95    96    2
