@<TRIPOS>MOLECULE
tmp/2a7pA02.pdb
 159 148 0 0 0
SMALL
GASTEIGER

@<TRIPOS>ATOM
      1  N         76.0220   87.8770   12.8800 N.3    23  TYR23      -0.1241
      2  CA        75.0910   87.5550   13.9520 C.3    23  TYR23       0.1605
      3  C         75.8320   86.7240   15.0100 C.2    23  TYR23       0.2264
      4  O         75.6860   86.9490   16.2050 O.2    23  TYR23      -0.2867
      5  CB        73.9020   86.7560   13.4100 C.3    23  TYR23       0.0534
      6  CG        73.1600   85.9970   14.4860 C.ar   23  TYR23      -0.0201
      7  CD1       72.3700   86.6630   15.4260 C.ar   23  TYR23      -0.0009
      8  CD2       73.3100   84.6190   14.6110 C.ar   23  TYR23      -0.0009
      9  CE1       71.7530   85.9680   16.4720 C.ar   23  TYR23       0.0417
     10  CE2       72.7030   83.9180   15.6450 C.ar   23  TYR23       0.0417
     11  CZ        71.9290   84.5940   16.5730 C.ar   23  TYR23       0.1957
     12  OH        71.3530   83.8900   17.6080 O.3    23  TYR23      -0.2866
     13  N         71.0510   80.6420   20.6590 N.3    78  ALA78      -0.1231
     14  CA        69.8810   80.7200   19.7940 C.3    78  ALA78       0.1694
     15  C         70.1940   80.6940   18.3010 C.2    78  ALA78       0.2591
     16  O         71.2430   81.1770   17.8640 O.2    78  ALA78      -0.2718
     17  CB        69.0990   81.9810   20.1190 C.3    78  ALA78       0.0304
     18  N         69.2600   80.1210   17.5410 N.am   79  LEU79      -0.1980
     19  CA        69.3210   80.0360   16.0830 C.3    79  LEU79       0.1596
     20  C         70.4710   79.2290   15.5080 C.2    79  LEU79       0.2287
     21  O         71.0390   79.6010   14.4870 O.2    79  LEU79      -0.2864
     22  CB        69.3450   81.4500   15.4940 C.3    79  LEU79       0.0297
     23  CG        68.2430   82.3590   16.0520 C.3    79  LEU79       0.0022
     24  CD1       68.4180   83.7870   15.5450 C.3    79  LEU79       0.0001
     25  CD2       66.8880   81.8020   15.6530 C.3    79  LEU79       0.0001
     26  N         65.9680   78.4440   24.7170 N.3   106  THR106     -0.1203
     27  CA        64.5290   78.6130   24.6110 C.3   106  THR106      0.1994
     28  C         64.2250   79.0030   23.1700 C.2   106  THR106      0.2617
     29  O         63.1490   78.7190   22.6470 O.2   106  THR106     -0.2717
     30  CB        64.0180   79.7400   25.5400 C.3   106  THR106      0.1784
     31  OG1       63.9770   79.2670   26.8900 O.3   106  THR106     -0.2211
     32  CG2       62.6330   80.1990   25.1240 C.3   106  THR106      0.0376
     33  N         65.1980   79.6500   22.5360 N.am  107  ALA107     -0.1979
     34  CA        65.0590   80.1000   21.1630 C.3   107  ALA107      0.1597
     35  C         65.7600   79.1740   20.1700 C.2   107  ALA107      0.2287
     36  O         66.3580   79.6350   19.1980 O.2   107  ALA107     -0.2864
     37  CB        65.6040   81.5290   21.0330 C.3   107  ALA107      0.0319
     38  N         64.1420   81.4490   28.8820 N.3   128  TYR128     -0.1241
     39  CA        63.9360   82.8910   28.8150 C.3   128  TYR128      0.1605
     40  C         62.4540   83.0340   29.1720 C.2   128  TYR128      0.2264
     41  O         61.6470   82.1740   28.8050 O.2   128  TYR128     -0.2867
     42  CB        64.1430   83.4340   27.3950 C.3   128  TYR128      0.0534
     43  CG        65.5760   83.7050   26.9980 C.ar  128  TYR128     -0.0201
     44  CD1       66.4240   84.4420   27.8240 C.ar  128  TYR128     -0.0009
     45  CD2       66.0650   83.2750   25.7650 C.ar  128  TYR128     -0.0009
     46  CE1       67.7280   84.7490   27.4290 C.ar  128  TYR128      0.0417
     47  CE2       67.3600   83.5750   25.3570 C.ar  128  TYR128      0.0417
     48  CZ        68.1880   84.3120   26.1930 C.ar  128  TYR128      0.1957
     49  OH        69.4740   84.6030   25.7970 O.3   128  TYR128     -0.2866
     50  N         59.2460   85.1420   28.4720 N.3   130  ILE130     -0.1245
     51  CA        58.5730   86.1840   27.7130 C.3   130  ILE130      0.1561
     52  C         57.2300   86.3580   28.4050 C.2   130  ILE130      0.2260
     53  O         56.8340   87.4700   28.7530 O.2   130  ILE130     -0.2867
     54  CB        58.3100   85.7800   26.2410 C.3   130  ILE130      0.0252
     55  CG1       59.6280   85.5330   25.5040 C.3   130  ILE130      0.0019
     56  CG2       57.5320   86.8760   25.5400 C.3   130  ILE130      0.0019
     57  CD1       60.3310   84.2610   25.9220 C.3   130  ILE130      0.0001
     58  N         69.0500   89.3800   29.7150 N.3   156  VAL156     -0.1245
     59  CA        68.4100   89.8460   28.4860 C.3   156  VAL156      0.1561
     60  C         67.0650   90.5100   28.7920 C.2   156  VAL156      0.2260
     61  O         66.0670   90.2700   28.1090 O.2   156  VAL156     -0.2867
     62  CB        68.1860   88.7030   27.5010 C.3   156  VAL156      0.0252
     63  CG1       67.8010   89.2340   26.1140 C.3   156  VAL156      0.0019
     64  CG2       69.4430   87.8450   27.3380 C.3   156  VAL156      0.0019
     65  N         66.9910   93.6740   24.7860 N.3   159  ASN159     -0.1240
     66  CA        67.9750   93.1640   23.8180 C.3   159  ASN159      0.1653
     67  C         69.1820   94.0980   23.6900 C.2   159  ASN159      0.2266
     68  O         69.0570   95.3220   23.6610 O.2   159  ASN159     -0.2867
     69  CB        67.3080   93.0010   22.4590 C.3   159  ASN159      0.1155
     70  CG        66.1650   91.9970   22.5180 C.2   159  ASN159      0.2627
     71  OD1       65.3030   91.9880   21.6330 O.2   159  ASN159     -0.2716
     72  ND2       66.1220   91.1490   23.5330 N.am  159  ASN159     -0.0877
     73  N         73.2570   95.5180   19.2630 N.3   162  ARG162     -0.1245
     74  CA        74.2910   94.8910   18.4160 C.3   162  ARG162      0.1563
     75  C         74.2450   95.5360   17.0280 C.2   162  ARG162      0.2260
     76  O         73.4720   95.1330   16.1600 O.2   162  ARG162     -0.2867
     77  CB        74.0250   93.3840   18.3240 C.3   162  ARG162      0.0307
     78  CG        73.8620   92.7160   19.7010 C.3   162  ARG162      0.0489
     79  CD        74.4280   91.2960   19.7470 C.3   162  ARG162      0.2205
     80  NE        73.4120   90.2560   19.5670 N.pl3 162  ARG162     -0.0865
     81  CZ        72.6200   89.8010   20.5320 C.cat 162  ARG162      0.5346
     82  NH1       72.7060   90.2960   21.7760 N.pl3 162  ARG162      0.1354
     83  NH2       71.7210   88.8420   20.3200 N.pl3 162  ARG162      0.1354
     84  N         65.8460   86.7690   10.9220 N.3   172  ILE172     -0.1245
     85  CA        65.8830   85.3140   11.1020 C.3   172  ILE172      0.1561
     86  C         65.6050   84.6330    9.7760 C.2   172  ILE172      0.2260
     87  O         64.5770   84.9010    9.1290 O.2   172  ILE172     -0.2867
     88  CB        64.8370   84.8590   12.1180 C.3   172  ILE172      0.0252
     89  CG1       65.0860   85.5120   13.4880 C.3   172  ILE172      0.0019
     90  CG2       64.8600   83.3330   12.2870 C.3   172  ILE172      0.0019
     91  CD1       64.0590   85.1450   14.5540 C.3   172  ILE172      0.0001
     92  N         61.1790   79.5530   15.5780 N.3   178  LEU178     -0.1245
     93  CA        61.3710   79.4070   17.0330 C.3   178  LEU178      0.1561
     94  C         60.4270   78.3020   17.4990 C.2   178  LEU178      0.2260
     95  O         59.4240   78.5170   18.1260 O.2   178  LEU178     -0.2867
     96  CB        61.0250   80.7000   17.7460 C.3   178  LEU178      0.0270
     97  CG        61.8620   81.8950   17.3230 C.3   178  LEU178      0.0019
     98  CD1       61.3270   83.1840   17.9500 C.3   178  LEU178      0.0001
     99  CD2       63.3260   81.7340   17.7360 C.3   178  LEU178      0.0001
    100  N         58.1590   77.8270   20.5090 N.3   181  PHE181     -0.1241
    101  CA        56.9960   78.7210   20.6050 C.3   181  PHE181      0.1605
    102  C         55.8990   78.3010   19.6230 C.2   181  PHE181      0.2264
    103  O         54.7300   78.6580   19.7840 O.2   181  PHE181     -0.2867
    104  CB        57.4100   80.1630   20.3120 C.3   181  PHE181      0.0534
    105  CG        58.2870   80.7410   21.4110 C.ar  181  PHE181     -0.0203
    106  CD1       57.7160   81.1880   22.6020 C.ar  181  PHE181     -0.0042
    107  CD2       59.6670   80.8190   21.2320 C.ar  181  PHE181     -0.0042
    108  CE1       58.5260   81.7050   23.6190 C.ar  181  PHE181     -0.0003
    109  CE2       60.4780   81.3330   22.2480 C.ar  181  PHE181     -0.0003
    110  CZ        59.9080   81.7750   23.4420 C.ar  181  PHE181     -0.0000
    111  N         59.0800   90.5040   20.4410 N.3   203  ARG203     -0.1245
    112  CA        60.3990   89.8960   20.5700 C.3   203  ARG203      0.1563
    113  C         61.1130   90.4740   21.7920 C.2   203  ARG203      0.2260
    114  O         62.3400   90.6060   21.8050 O.2   203  ARG203     -0.2867
    115  CB        61.2240   90.1570   19.3060 C.3   203  ARG203      0.0307
    116  CG        60.5710   89.6610   18.0270 C.3   203  ARG203      0.0489
    117  CD        61.4060   90.0150   16.8070 C.3   203  ARG203      0.2205
    118  NE        60.7740   89.5770   15.5670 N.pl3 203  ARG203     -0.0865
    119  CZ        61.2810   89.7830   14.3560 C.cat 203  ARG203      0.5346
    120  NH1       62.4340   90.4240   14.2170 N.pl3 203  ARG203      0.1354
    121  NH2       60.6360   89.3480   13.2820 N.pl3 203  ARG203      0.1354
    122  N         61.3210   90.3460   26.1930 N.3   205  MET205     -0.1245
    123  CA        61.0540   89.5510   27.3820 C.3   205  MET205      0.1570
    124  C         60.5010   90.2770   28.5930 C.2   205  MET205      0.2261
    125  O         60.4660   91.5070   28.6530 O.2   205  MET205     -0.2867
    126  CB        62.3170   88.8120   27.8040 C.3   205  MET205      0.0387
    127  CG        62.5840   87.5660   27.0080 C.3   205  MET205      0.0595
    128  SD        64.0840   86.8090   27.5820 S.3   205  MET205     -0.1393
    129  CE        65.1820   87.2150   26.2340 C.3   205  MET205      0.0692
    130  N         77.1620   87.1000   28.7460 N.3   252  HIS252     -0.1241
    131  CA        76.5310   86.7210   27.4930 C.3   252  HIS252      0.1621
    132  C         77.4780   86.8640   26.3120 C.2   252  HIS252      0.2264
    133  O         77.0700   87.3180   25.2390 O.2   252  HIS252     -0.2867
    134  CB        75.2970   87.6070   27.2660 C.3   252  HIS252      0.0745
    135  CG        74.1350   86.9000   26.6430 C.ar  252  HIS252      0.0817
    136  ND1       73.1240   86.3330   27.3890 N.ar  252  HIS252     -0.2268
    137  CD2       73.8050   86.6980   25.3450 C.ar  252  HIS252      0.1154
    138  CE1       72.2190   85.8160   26.5770 C.ar  252  HIS252      0.1986
    139  NE2       72.6080   86.0240   25.3320 N.ar  252  HIS252     -0.2212
    140  N         77.6290   90.2570   24.4280 N.3   255  ARG255     -0.1231
    141  CA        76.5750   90.6300   23.4970 C.3   255  ARG255      0.1694
    142  C         75.4440   91.4650   24.0920 C.2   255  ARG255      0.2591
    143  O         74.5580   91.9150   23.3670 O.2   255  ARG255     -0.2718
    144  CB        75.9980   89.3630   22.8580 C.3   255  ARG255      0.0321
    145  CG        77.0080   88.5910   22.0140 C.3   255  ARG255      0.0489
    146  CD        76.6180   87.1290   21.8710 C.3   255  ARG255      0.2205
    147  NE        75.4250   86.9070   21.0550 N.pl3 255  ARG255     -0.0865
    148  CZ        75.3880   87.0220   19.7310 C.cat 255  ARG255      0.5346
    149  NH1       76.4810   87.3670   19.0580 N.pl3 255  ARG255      0.1354
    150  NH2       74.2660   86.7580   19.0760 N.pl3 255  ARG255      0.1354
    151  N         75.4790   91.6900   25.3990 N.am  256  GLN256     -0.1979
    152  CA        74.4200   92.4560   26.0380 C.3   256  GLN256      0.1601
    153  C         74.7640   93.8710   26.4710 C.2   256  GLN256      0.2287
    154  O         73.9950   94.7970   26.2300 O.2   256  GLN256     -0.2864
    155  CB        73.8660   91.6710   27.2250 C.3   256  GLN256      0.0394
    156  CG        73.0310   90.4890   26.7750 C.3   256  GLN256      0.0908
    157  CD        71.8900   90.9250   25.8760 C.2   256  GLN256      0.2608
    158  OE1       70.9480   91.5770   26.3240 O.2   256  GLN256     -0.2717
    159  NE2       71.9770   90.5800   24.5950 N.am  256  GLN256     -0.0878
@<TRIPOS>BOND
     1    87    86    2
     2    86    85    1
     3    84    85    1
     4    85    88    1
     5    88    90    1
     6    88    89    1
     7     1     2    1
     8   121   119    1
     9     5     2    1
    10     5     6    1
    11    89    91    1
    12     2     3    1
    13   120   119    1
    14   119   118    2
    15     6     8   ar
    16     6     7   ar
    17    21    20    2
    18     8    10   ar
    19     3     4    2
    20     7     9   ar
    21    22    23    1
    22    22    19    1
    23    20    19    1
    24    24    23    1
    25   118   117    1
    26    92    93    1
    27    10    11   ar
    28    25    23    1
    29    19    18    1
    30    76    75    2
    31     9    11   ar
    32    11    12    1
    33   117   116    1
    34    75    74    1
    35    93    94    1
    36    93    96    1
    37    97    99    1
    38    97    96    1
    39    97    98    1
    40    94    95    2
    41    18    15   am
    42    16    15    2
    43   116   115    1
    44    15    14    1
    45    77    74    1
    46    77    78    1
    47    74    73    1
    48   149   148    1
    49   150   148    1
    50    36    35    2
    51   115   112    1
    52    80    79    1
    53    80    81    2
    54   102   103    2
    55   102   101    1
    56    78    79    1
    57   148   147    2
    58    14    17    1
    59    14    13    1
    60    35    34    1
    61   104   101    1
    62   104   105    1
    63    83    81    1
    64   111   112    1
    65   100   101    1
    66    81    82    1
    67   112   113    1
    68    37    34    1
    69   147   146    1
    70    34    33    1
    71   107   105   ar
    72   107   109   ar
    73   105   106   ar
    74    71    70    2
    75   113   114    2
    76   146   145    1
    77   145   144    1
    78   109   110   ar
    79    69    70    1
    80    69    66    1
    81    70    72   am
    82    33    28   am
    83   106   108   ar
    84    29    28    2
    85   144   141    1
    86    28    27    1
    87   143   142    2
    88   110   108   ar
    89   141   142    1
    90   141   140    1
    91    68    67    2
    92    67    66    1
    93    66    65    1
    94   142   151   am
    95   159   157   am
    96    27    26    1
    97    27    30    1
    98    32    30    1
    99   133   132    2
   100   139   137   ar
   101   139   138   ar
   102   137   135   ar
   103    47    45   ar
   104    47    48   ar
   105   151   152    1
   106    55    57    1
   107    55    54    1
   108    30    31    1
   109    56    54    1
   110    45    43   ar
   111    49    48    1
   112   157   158    2
   113   157   156    1
   114   152   153    1
   115   152   155    1
   116    63    62    1
   117    48    46   ar
   118   122   123    1
   119   154   153    2
   120   129   128    1
   121    54    51    1
   122   132   131    1
   123   138   136   ar
   124   135   134    1
   125   135   136   ar
   126   156   155    1
   127    43    42    1
   128    43    44   ar
   129   127   128    1
   130   127   126    1
   131   134   131    1
   132    64    62    1
   133   123   126    1
   134   123   124    1
   135    42    39    1
   136    46    44   ar
   137   131   130    1
   138    62    59    1
   139    51    52    1
   140    51    50    1
   141    61    60    2
   142    52    53    2
   143    59    60    1
   144    59    58    1
   145   124   125    2
   146    41    40    2
   147    39    38    1
   148    39    40    1
