@<TRIPOS>MOLECULE
tmp/2a7rB00.pdb
 191 180 0 0 0
SMALL
GASTEIGER

@<TRIPOS>ATOM
      1  N         13.5460   18.6730   35.3050 N.3    53  ALA53      -0.1231
      2  CA        14.0870   19.7350   34.4650 C.3    53  ALA53       0.1694
      3  C         13.5990   19.6870   33.0230 C.2    53  ALA53       0.2592
      4  O         13.3840   18.6210   32.4490 O.2    53  ALA53      -0.2718
      5  CB        15.5930   19.6900   34.5030 C.3    53  ALA53       0.0304
      6  N         13.4430   20.8660   32.4390 N.am   54  ASN54      -0.1960
      7  CA        12.9680   20.9820   31.0720 C.3    54  ASN54       0.1819
      8  C         14.0600   20.7030   30.0390 C.2    54  ASN54       0.2621
      9  O         14.2500   21.4640   29.0870 O.2    54  ASN54      -0.2715
     10  CB        12.3590   22.3730   30.8600 C.3    54  ASN54       0.1195
     11  CG        13.3720   23.4850   31.0130 C.2    54  ASN54       0.2630
     12  OD1       14.1420   23.5090   31.9680 O.2    54  ASN54      -0.2716
     13  ND2       13.3730   24.4180   30.0740 N.am   54  ASN54      -0.0877
     14  N         14.7740   19.6000   30.2320 N.am   55  MET55      -0.1977
     15  CA        15.8280   19.2100   29.3140 C.3    55  MET55       0.1605
     16  C         15.2790   18.1530   28.3810 C.2    55  MET55       0.2287
     17  O         14.4420   17.3510   28.7780 O.2    55  MET55      -0.2864
     18  CB        17.0130   18.6590   30.0850 C.3    55  MET55       0.0413
     19  CG        17.6130   19.6700   31.0280 C.3    55  MET55       0.0598
     20  SD        19.1160   19.0920   31.7700 S.3    55  MET55      -0.1393
     21  CE        18.4960   18.2680   33.0790 C.3    55  MET55       0.0692
     22  N         18.2260   31.5480   34.3860 N.3   158  ASN158     -0.1240
     23  CA        18.6560   31.3530   35.7650 C.3   158  ASN158      0.1653
     24  C         19.5410   32.4770   36.2590 C.2   158  ASN158      0.2266
     25  O         20.1310   33.2100   35.4790 O.2   158  ASN158     -0.2867
     26  CB        19.4280   30.0460   35.8910 C.3   158  ASN158      0.1155
     27  CG        18.5760   28.8500   35.6020 C.2   158  ASN158      0.2627
     28  OD1       17.7100   28.8870   34.7370 O.2   158  ASN158     -0.2716
     29  ND2       18.8230   27.7680   36.3210 N.am  158  ASN158     -0.0877
     30  N         14.4020   30.6350   38.7960 N.3   177  LYS177     -0.1245
     31  CA        15.2420   29.4490   38.6880 C.3   177  LYS177      0.1561
     32  C         16.6790   29.8290   39.0620 C.2   177  LYS177      0.2260
     33  O         17.3440   30.5810   38.3430 O.2   177  LYS177     -0.2867
     34  CB        15.2010   28.9050   37.2640 C.3   177  LYS177      0.0271
     35  CG        13.8410   28.4020   36.8530 C.3   177  LYS177      0.0035
     36  CD        13.8670   26.9460   36.4150 C.3   177  LYS177      0.0206
     37  CE        14.4550   26.7370   35.0100 C.3   177  LYS177      0.1093
     38  NZ        15.9020   27.0230   34.9290 N.3   177  LYS177     -0.1314
     39  N         20.6350   28.9590   39.7470 N.3   179  GLY179     -0.1210
     40  CA        21.6770   28.0190   39.3960 C.3   179  GLY179      0.1956
     41  C         22.4460   28.2560   38.1070 C.2   179  GLY179      0.2611
     42  O         21.8600   28.3000   37.0250 O.2   179  GLY179     -0.2717
     43  N         23.7670   28.4010   38.2350 N.am  180  ILE180     -0.1979
     44  CA        24.6370   28.5880   37.0810 C.3   180  ILE180      0.1595
     45  C         25.9870   27.8960   37.3210 C.2   180  ILE180      0.2287
     46  O         26.7320   28.2980   38.2070 O.2   180  ILE180     -0.2864
     47  CB        24.9330   30.0950   36.8080 C.3   180  ILE180      0.0276
     48  CG1       23.6410   30.8790   36.5650 C.3   180  ILE180      0.0022
     49  CG2       25.8120   30.2340   35.5890 C.3   180  ILE180      0.0022
     50  CD1       23.8830   32.3440   36.3270 C.3   180  ILE180      0.0001
     51  N         26.8930   24.5020   38.3790 N.3   182  PRO182     -0.2102
     52  CA        26.7790   23.2030   39.0470 C.3   182  PRO182      0.1504
     53  C         26.0610   22.0840   38.3070 C.2   182  PRO182      0.2576
     54  O         26.0660   20.9370   38.7640 O.2   182  PRO182     -0.2718
     55  CB        26.1080   23.5470   40.3770 C.3   182  PRO182      0.0282
     56  CG        26.6100   24.8810   40.6530 C.3   182  PRO182      0.0208
     57  CD        26.5100   25.5820   39.3160 C.3   182  PRO182      0.0893
     58  N         25.4660   22.3810   37.1670 N.am  183  GLY183     -0.1943
     59  CA        24.7390   21.3470   36.4480 C.3   183  GLY183      0.2014
     60  C         25.5920   20.1650   36.0080 C.2   183  GLY183      0.2640
     61  O         26.7980   20.3110   35.8030 O.2   183  GLY183     -0.2714
     62  N         24.9590   18.9950   35.8280 N.am  184  SER184     -0.1935
     63  CA        25.6490   17.7650   35.4190 C.3   184  SER184      0.2055
     64  C         26.1880   17.9300   34.0000 C.2   184  SER184      0.2643
     65  O         27.4060   17.9540   33.7760 O.2   184  SER184     -0.2714
     66  CB        24.6870   16.5660   35.4970 C.3   184  SER184      0.2130
     67  OG        25.3100   15.3310   35.2320 O.3   184  SER184     -0.2179
     68  N         25.2680   18.0480   33.0460 N.am  185  VAL185     -0.1963
     69  CA        25.6230   18.2630   31.6470 C.3   185  VAL185      0.1727
     70  C         26.0310   19.7290   31.4500 C.2   185  VAL185      0.2616
     71  O         26.4360   20.1530   30.3560 O.2   185  VAL185     -0.2715
     72  CB        24.4460   17.9280   30.7560 C.3   185  VAL185      0.0290
     73  CG1       23.2440   18.8190   30.9340 C.3   185  VAL185      0.0023
     74  CG2       24.8640   17.8150   29.2990 C.3   185  VAL185      0.0023
     75  N         25.9220   20.4940   32.5350 N.am  186  CYS186     -0.1968
     76  CA        26.2880   21.9000   32.5290 C.3   186  CYS186      0.1712
     77  C         27.8020   22.0070   32.7160 C.2   186  CYS186      0.2296
     78  O         28.4000   21.2660   33.5020 O.2   186  CYS186     -0.2864
     79  CB        25.5540   22.6450   33.6460 C.3   186  CYS186      0.0983
     80  SG        26.1140   24.3570   33.9030 S.3   186  CYS186     -0.0798
     81  N         29.4990   25.4460   32.4880 N.3   188  THR188     -0.1218
     82  CA        29.7250   26.8800   32.4260 C.3   188  THR188      0.1862
     83  C         31.1000   27.2310   32.9650 C.2   188  THR188      0.2287
     84  O         31.8070   28.0700   32.4050 O.2   188  THR188     -0.2866
     85  CB        28.6850   27.6020   33.2720 C.3   188  THR188      0.1770
     86  OG1       27.3850   27.1190   32.9180 O.3   188  THR188     -0.2211
     87  CG2       28.7640   29.1040   33.0560 C.3   188  THR188      0.0375
     88  N         17.8750   25.0070   40.7540 N.3   219  ASP219     -0.1225
     89  CA        18.0670   24.3410   39.4720 C.3   219  ASP219      0.1805
     90  C         19.4640   23.7600   39.3060 C.2   219  ASP219      0.2598
     91  O         20.4540   24.4870   39.2300 O.2   219  ASP219     -0.2718
     92  CB        17.7440   25.3280   38.3430 C.3   219  ASP219      0.1424
     93  CG        17.6070   24.6550   37.0010 C.2   219  ASP219      0.3668
     94  OD1       17.2280   23.4730   36.9630 O.co2 219  ASP219     -0.2456
     95  OD2       17.8640   25.3080   35.9780 O.co2 219  ASP219     -0.2456
     96  N         19.5280   22.4320   39.2570 N.am  220  GLY220     -0.1942
     97  CA        20.8000   21.7480   39.1140 C.3   220  GLY220      0.2014
     98  C         21.6140   21.6950   40.3960 C.2   220  GLY220      0.2639
     99  O         21.3070   22.3820   41.3720 O.2   220  GLY220     -0.2714
    100  N         22.6520   20.8650   40.3930 N.am  221  GLY221     -0.1939
    101  CA        23.5090   20.7290   41.5570 C.3   221  GLY221      0.2014
    102  C         23.2950   19.4860   42.4130 C.2   221  GLY221      0.2639
    103  O         24.1790   19.0810   43.1620 O.2   221  GLY221     -0.2714
    104  N         22.1250   18.8740   42.3080 N.am  222  CYS222     -0.1967
    105  CA        21.8310   17.7010   43.1070 C.3   222  CYS222      0.1712
    106  C         22.2350   16.4010   42.4350 C.2   222  CYS222      0.2296
    107  O         21.9660   16.1700   41.2470 O.2   222  CYS222     -0.2864
    108  CB        20.3430   17.6640   43.4510 C.3   222  CYS222      0.0983
    109  SG        19.8130   18.9830   44.5380 S.3   222  CYS222     -0.0798
    110  N         14.6610   21.5170   41.3060 N.3   240  MET240     -0.1230
    111  CA        14.5120   20.9720   39.9590 C.3   240  MET240      0.1702
    112  C         15.6080   19.9690   39.6580 C.2   240  MET240      0.2592
    113  O         16.7900   20.2880   39.7240 O.2   240  MET240     -0.2718
    114  CB        14.5590   22.0900   38.9320 C.3   240  MET240      0.0401
    115  CG        14.2630   21.6260   37.5300 C.3   240  MET240      0.0596
    116  SD        14.3290   23.0100   36.4320 S.3   240  MET240     -0.1393
    117  CE        12.7330   23.6180   36.5600 C.3   240  MET240      0.0692
    118  N         15.2130   18.7560   39.3110 N.am  241  LEU241     -0.1966
    119  CA        16.1820   17.7250   39.0320 C.3   241  LEU241      0.1728
    120  C         16.4070   17.4950   37.5500 C.2   241  LEU241      0.2617
    121  O         15.4660   17.3900   36.7760 O.2   241  LEU241     -0.2715
    122  CB        15.7360   16.4280   39.6900 C.3   241  LEU241      0.0311
    123  CG        15.4660   16.5590   41.1810 C.3   241  LEU241      0.0022
    124  CD1       14.9970   15.2260   41.7410 C.3   241  LEU241      0.0001
    125  CD2       16.7270   17.0490   41.8670 C.3   241  LEU241      0.0001
    126  N         17.6740   17.4220   37.1610 N.am  242  GLY242     -0.1940
    127  CA        18.0180   17.1670   35.7780 C.3   242  GLY242      0.2014
    128  C         18.7140   15.8230   35.6580 C.2   242  GLY242      0.2639
    129  O         18.0770   14.8050   35.3770 O.2   242  GLY242     -0.2714
    130  N         20.0260   15.8260   35.8970 N.am  243  GLY243     -0.1939
    131  CA        20.8240   14.6150   35.8310 C.3   243  GLY243      0.2014
    132  C         20.3050   13.4990   36.7100 C.2   243  GLY243      0.2638
    133  O         20.2650   12.3480   36.2850 O.2   243  GLY243     -0.2714
    134  N         19.9050   13.8190   37.9350 N.am  244  MET244     -0.1976
    135  CA        19.3810   12.7920   38.8260 C.3   244  MET244      0.1605
    136  C         18.2130   12.0310   38.2140 C.2   244  MET244      0.2287
    137  O         17.8760   10.9440   38.6810 O.2   244  MET244     -0.2864
    138  CB        18.9330   13.3990   40.1510 C.3   244  MET244      0.0413
    139  CG        20.0570   13.6490   41.1190 C.3   244  MET244      0.0598
    140  SD        19.4190   14.1090   42.7220 S.3   244  MET244     -0.1393
    141  CE        18.6450   12.5600   43.2320 C.3   244  MET244      0.0692
    142  N         23.0580   12.3330   27.6940 N.3   266  PHE266     -0.1241
    143  CA        22.6120   13.4460   28.5000 C.3   266  PHE266      0.1605
    144  C         23.2900   14.7280   28.0240 C.2   266  PHE266      0.2264
    145  O         24.4810   14.9550   28.2420 O.2   266  PHE266     -0.2867
    146  CB        22.9090   13.2090   29.9790 C.3   266  PHE266      0.0534
    147  CG        22.2500   14.2040   30.8890 C.ar  266  PHE266     -0.0203
    148  CD1       20.8730   14.2180   31.0330 C.ar  266  PHE266     -0.0042
    149  CD2       23.0030   15.1510   31.5760 C.ar  266  PHE266     -0.0042
    150  CE1       20.2470   15.1600   31.8440 C.ar  266  PHE266     -0.0003
    151  CE2       22.3850   16.1000   32.3920 C.ar  266  PHE266     -0.0003
    152  CZ        21.0040   16.1010   32.5240 C.ar  266  PHE266     -0.0000
    153  N         21.6940   18.9460   26.8520 N.3   268  GLY268     -0.1210
    154  CA        20.5250   19.6940   27.2680 C.3   268  GLY268      0.1956
    155  C         20.3130   21.1430   26.9020 C.2   268  GLY268      0.2612
    156  O         20.9510   22.0380   27.4580 O.2   268  GLY268     -0.2717
    157  N         19.4030   21.3670   25.9610 N.am  269  MET269     -0.1965
    158  CA        19.0300   22.7140   25.5540 C.3   269  MET269      0.1736
    159  C         20.0830   23.5670   24.8260 C.2   269  MET269      0.2617
    160  O         19.7150   24.4710   24.0710 O.2   269  MET269     -0.2715
    161  CB        18.5340   23.4470   26.8030 C.3   269  MET269      0.0427
    162  CG        17.5770   22.6090   27.6570 C.3   269  MET269      0.0599
    163  SD        17.6320   23.0040   29.4290 S.3   269  MET269     -0.1393
    164  CE        16.5870   24.4760   29.4970 C.3   269  MET269      0.0692
    165  N         21.3720   23.2960   25.0380 N.am  270  SER270     -0.1950
    166  CA        22.4150   24.0960   24.3850 C.3   270  SER270      0.1924
    167  C         23.6540   23.3470   23.9240 C.2   270  SER270      0.2314
    168  O         24.7170   23.9510   23.7730 O.2   270  SER270     -0.2863
    169  CB        22.8660   25.2350   25.3020 C.3   270  SER270      0.2116
    170  OG        21.8630   26.2240   25.4150 O.3   270  SER270     -0.2180
    171  N         20.8780   28.3940   27.1430 N.3   286  ARG286     -0.1245
    172  CA        21.3880   28.1790   28.5040 C.3   286  ARG286      0.1563
    173  C         22.6170   29.0170   28.8400 C.2   286  ARG286      0.2260
    174  O         23.6430   28.9270   28.1680 O.2   286  ARG286     -0.2867
    175  CB        21.7200   26.7010   28.7140 C.3   286  ARG286      0.0307
    176  CG        20.5070   25.7920   28.7080 C.3   286  ARG286      0.0489
    177  CD        19.6560   25.9740   29.9570 C.3   286  ARG286      0.2205
    178  NE        19.2340   27.3570   30.1620 N.pl3 286  ARG286     -0.0865
    179  CZ        18.5340   27.7800   31.2090 C.cat 286  ARG286      0.5346
    180  NH1       18.1680   26.9250   32.1520 N.pl3 286  ARG286      0.1354
    181  NH2       18.2130   29.0630   31.3190 N.pl3 286  ARG286      0.1354
    182  N         26.0500   28.2100   29.0290 N.3   287  SER287     -0.1217
    183  CA        27.0980   27.5000   28.3010 C.3   287  SER287      0.1889
    184  C         26.5440   26.4510   27.3360 C.2   287  SER287      0.2288
    185  O         25.3440   26.1670   27.3270 O.2   287  SER287     -0.2866
    186  CB        28.0330   26.7960   29.2810 C.3   287  SER287      0.2089
    187  OG        27.4580   25.5860   29.7610 O.3   287  SER287     -0.2183
    188  N         25.9670   22.9770   26.6950 N.3   289  GLY289     -0.1225
    189  CA        25.9190   21.7300   27.4360 C.3   289  GLY289      0.1811
    190  C         26.8290   20.6310   26.9260 C.2   289  GLY289      0.2280
    191  O         27.0640   20.5040   25.7230 O.2   289  GLY289     -0.2866
@<TRIPOS>BOND
     1   168   167    2
     2   167   166    1
     3   160   159    2
     4   166   165    1
     5   166   169    1
     6   159   165   am
     7   159   158    1
     8   169   170    1
     9   158   157    1
    10   158   161    1
    11   191   190    2
    12   157   155   am
    13   188   189    1
    14   161   162    1
    15   153   154    1
    16   155   154    1
    17   155   156    2
    18   190   189    1
    19   171   172    1
    20   185   184    2
    21   184   183    1
    22   162   163    1
    23   142   143    1
    24   144   145    2
    25   144   143    1
    26   174   173    2
    27   183   182    1
    28   183   186    1
    29    16    17    2
    30    16    15    1
    31   143   146    1
    32   172   175    1
    33   172   173    1
    34   176   175    1
    35   176   177    1
    36     9     8    2
    37   186   187    1
    38    74    72    1
    39    15    18    1
    40    15    14    1
    41   163   164    1
    42   177   178    1
    43   146   147    1
    44     8    14   am
    45     8     7    1
    46    13    11   am
    47    18    19    1
    48   178   179    2
    49    71    70    2
    50    72    73    1
    51    72    69    1
    52    10    11    1
    53    10     7    1
    54   147   148   ar
    55   147   149   ar
    56    11    12    2
    57    19    20    1
    58   148   150   ar
    59     7     6    1
    60   179   181    1
    61   179   180    1
    62    70    69    1
    63    70    75   am
    64   149   151   ar
    65    69    68    1
    66    20    21    1
    67   150   152   ar
    68   151   152   ar
    69    84    83    2
    70    82    81    1
    71    82    83    1
    72    82    85    1
    73     6     3   am
    74     4     3    2
    75    76    75    1
    76    76    77    1
    77    76    79    1
    78    77    78    2
    79    86    85    1
    80     3     2    1
    81    68    64   am
    82    87    85    1
    83    79    80    1
    84    65    64    2
    85    64    63    1
    86    22    23    1
    87     2     5    1
    88     2     1    1
    89    28    27    2
    90    38    37    1
    91    37    36    1
    92    67    66    1
    93   129   128    2
    94    63    66    1
    95    63    62    1
    96    25    24    2
    97    49    47    1
    98    27    26    1
    99    27    29   am
   100   128   127    1
   101   128   130   am
   102    23    26    1
   103    23    24    1
   104   127   126    1
   105    61    60    2
   106    62    60   am
   107   131   130    1
   108   131   132    1
   109    95    93   ar
   110    60    59    1
   111   133   132    2
   112    50    48    1
   113    36    35    1
   114   116   117    1
   115   116   115    1
   116    59    58    1
   117    48    47    1
   118   132   134   am
   119   121   120    2
   120    47    44    1
   121    35    34    1
   122    94    93   ar
   123    93    92    1
   124    42    41    2
   125    44    45    1
   126    44    43    1
   127   126   120   am
   128    58    53   am
   129    34    31    1
   130    45    46    2
   131   115   114    1
   132   120   119    1
   133   134   135    1
   134    41    43   am
   135    41    40    1
   136   136   137    2
   137   136   135    1
   138    53    54    2
   139    53    52    1
   140    33    32    2
   141    92    89    1
   142    51    52    1
   143    51    57    1
   144    31    30    1
   145    31    32    1
   146   135   138    1
   147   114   111    1
   148   119   118    1
   149   119   122    1
   150    52    55    1
   151    97    96    1
   152    97    98    1
   153    91    90    2
   154    96    90   am
   155    90    89    1
   156   118   112   am
   157    57    56    1
   158    40    39    1
   159    89    88    1
   160   112   113    2
   161   112   111    1
   162   122   123    1
   163   111   110    1
   164   138   139    1
   165    55    56    1
   166   100    98   am
   167   100   101    1
   168    98    99    2
   169   139   140    1
   170   123   124    1
   171   123   125    1
   172   107   106    2
   173   101   102    1
   174   104   102   am
   175   104   105    1
   176   102   103    2
   177   106   105    1
   178   140   141    1
   179   105   108    1
   180   108   109    1
