@<TRIPOS>MOLECULE
tmp/2a81A01.pdb
 125 118 0 0 0
SMALL
GASTEIGER

@<TRIPOS>ATOM
      1  N          4.0320  -54.7150   -0.6110 N.3    61  GLY61      -0.1210
      2  CA         4.9390  -55.8470   -0.5970 C.3    61  GLY61       0.1956
      3  C          4.2310  -57.0810   -1.0790 C.2    61  GLY61       0.2612
      4  O          3.1920  -56.9800   -1.7230 O.2    61  GLY61      -0.2717
      5  N          4.7890  -58.2440   -0.7530 N.am   62  GLY62      -0.1956
      6  CA         4.2240  -59.5240   -1.1610 C.3    62  GLY62       0.1869
      7  C          2.9570  -59.9070   -0.4260 C.2    62  GLY62       0.2309
      8  O          2.5290  -59.2270    0.4960 O.2    62  GLY62      -0.2863
      9  N          3.5040  -65.7070    1.9710 N.3    67  VAL67      -0.1245
     10  CA         4.6340  -65.6510    2.9140 C.3    67  VAL67       0.1561
     11  C          4.4320  -66.4910    4.2070 C.2    67  VAL67       0.2260
     12  O          5.2010  -67.4320    4.4750 O.2    67  VAL67      -0.2867
     13  CB         4.9690  -64.1960    3.2440 C.3    67  VAL67       0.0252
     14  CG1        6.1300  -64.0910    4.2270 C.3    67  VAL67       0.0019
     15  CG2        5.3700  -63.4820    1.9510 C.3    67  VAL67       0.0019
     16  N         10.2210  -69.2860   -4.4020 N.3    79  TRP79      -0.1227
     17  CA         9.6350  -67.9650   -4.1280 C.3    79  TRP79       0.1737
     18  C         10.6650  -66.8430   -4.3390 C.2    79  TRP79       0.2595
     19  O         10.3610  -65.8170   -4.9450 O.2    79  TRP79      -0.2718
     20  CB         9.0800  -67.9490   -2.6980 C.3    79  TRP79       0.0564
     21  CG         8.6030  -66.6290   -2.2230 C.ar   79  TRP79       0.0003
     22  CD1        7.5820  -65.9000   -2.7380 C.ar   79  TRP79       0.0946
     23  CD2        9.1090  -65.8820   -1.1070 C.ar   79  TRP79       0.0152
     24  NE1        7.4230  -64.7340   -2.0280 N.ar   79  TRP79      -0.2442
     25  CE2        8.3470  -64.6960   -1.0200 C.ar   79  TRP79       0.0810
     26  CE3       10.1380  -66.0940   -0.1810 C.ar   79  TRP79       0.0012
     27  CZ2        8.5790  -63.7220   -0.0450 C.ar   79  TRP79       0.0191
     28  CZ3       10.3650  -65.1220    0.7960 C.ar   79  TRP79       0.0001
     29  CH2        9.5870  -63.9510    0.8520 C.ar   79  TRP79       0.0015
     30  N         11.8860  -67.0580   -3.8520 N.am   80  ILE80      -0.1980
     31  CA        12.9610  -66.0880   -4.0330 C.3    80  ILE80       0.1595
     32  C         13.2700  -65.8870   -5.5100 C.2    80  ILE80       0.2287
     33  O         13.4600  -64.7440   -5.9430 O.2    80  ILE80      -0.2864
     34  CB        14.2650  -66.4900   -3.2980 C.3    80  ILE80       0.0276
     35  CG1       14.0570  -66.4400   -1.7780 C.3    80  ILE80       0.0022
     36  CG2       15.4280  -65.6010   -3.7080 C.3    80  ILE80       0.0022
     37  CD1       13.6720  -65.0750   -1.2370 C.3    80  ILE80       0.0001
     38  N         10.6480  -63.5530   -6.9560 N.3    83  VAL83      -0.1245
     39  CA        10.8830  -62.1850   -6.5260 C.3    83  VAL83       0.1561
     40  C         11.9540  -61.4990   -7.3750 C.2    83  VAL83       0.2260
     41  O         11.7310  -60.4050   -7.8880 O.2    83  VAL83      -0.2867
     42  CB        11.2960  -62.1410   -5.0440 C.3    83  VAL83       0.0252
     43  CG1       11.8190  -60.7440   -4.6620 C.3    83  VAL83       0.0019
     44  CG2       10.1300  -62.5530   -4.1450 C.3    83  VAL83       0.0019
     45  N         12.0900  -58.2420  -10.2730 N.3    87  TYR87      -0.1241
     46  CA        12.9920  -57.0970  -10.2190 C.3    87  TYR87       0.1605
     47  C         13.8310  -57.0200  -11.4810 C.2    87  TYR87       0.2264
     48  O         14.0430  -55.9340  -12.0160 O.2    87  TYR87      -0.2867
     49  CB        13.9060  -57.1580   -8.9900 C.3    87  TYR87       0.0534
     50  CG        13.1980  -57.2100   -7.6430 C.ar   87  TYR87      -0.0201
     51  CD1       11.9440  -56.6260   -7.4520 C.ar   87  TYR87      -0.0009
     52  CD2       13.7990  -57.8300   -6.5470 C.ar   87  TYR87      -0.0009
     53  CE1       11.3120  -56.6800   -6.2130 C.ar   87  TYR87       0.0417
     54  CE2       13.1710  -57.8820   -5.3150 C.ar   87  TYR87       0.0417
     55  CZ        11.9380  -57.3090   -5.1600 C.ar   87  TYR87       0.1957
     56  OH        11.3330  -57.3660   -3.9480 O.3    87  TYR87      -0.2866
     57  N          8.4790  -53.2060    1.9500 N.3   107  GLY107     -0.1210
     58  CA         9.2930  -54.3990    1.7050 C.3   107  GLY107      0.1956
     59  C          9.5140  -54.6640    0.2360 C.2   107  GLY107      0.2611
     60  O         10.2820  -53.9670   -0.4150 O.2   107  GLY107     -0.2717
     61  N          8.7980  -55.6470   -0.2950 N.am  108  MET108     -0.1979
     62  CA         8.8910  -55.9750   -1.7110 C.3   108  MET108      0.1605
     63  C          8.5010  -54.8020   -2.6330 C.2   108  MET108      0.2287
     64  O          9.0480  -54.6740   -3.7100 O.2   108  MET108     -0.2864
     65  CB         8.0300  -57.2010   -2.0190 C.3   108  MET108      0.0413
     66  CG         8.5010  -58.0080   -3.2110 C.3   108  MET108      0.0598
     67  SD         7.3100  -59.2700   -3.7030 S.3   108  MET108     -0.1393
     68  CE         7.5350  -59.3040   -5.4580 C.3   108  MET108      0.0692
     69  N         11.3730  -52.3640   -2.7070 N.3   111  GLN111     -0.1245
     70  CA        12.4520  -52.8960   -3.5220 C.3   111  GLN111      0.1566
     71  C         12.1160  -52.7750   -4.9910 C.2   111  GLN111      0.2260
     72  O         12.9350  -52.3090   -5.7780 O.2   111  GLN111     -0.2867
     73  CB        12.7290  -54.3510   -3.1530 C.3   111  GLN111      0.0367
     74  CG        13.3160  -54.5110   -1.7470 C.3   111  GLN111      0.0905
     75  CD        13.3290  -55.9420   -1.2610 C.2   111  GLN111      0.2608
     76  OE1       13.5200  -56.8640   -2.0420 O.2   111  GLN111     -0.2717
     77  NE2       13.1260  -56.1340    0.0360 N.am  111  GLN111     -0.0878
     78  N         10.9230  -55.6090    7.6070 N.3   131  GLU131     -0.1245
     79  CA        11.0800  -57.0760    7.6440 C.3   131  GLU131      0.1567
     80  C         11.5190  -57.6130    9.0040 C.2   131  GLU131      0.2260
     81  O         10.8060  -58.4080    9.6170 O.2   131  GLU131     -0.2867
     82  CB        12.0850  -57.5470    6.5760 C.3   131  GLU131      0.0388
     83  CG        11.5000  -57.7070    5.1670 C.3   131  GLU131      0.1160
     84  CD        10.8110  -56.4510    4.6540 C.2   131  GLU131      0.3649
     85  OE1       11.4340  -55.3690    4.6980 O.co2 131  GLU131     -0.2457
     86  OE2        9.6460  -56.5470    4.2140 O.co2 131  GLU131     -0.2457
     87  N         10.7820  -61.3960    9.3020 N.3   136  ILE136     -0.1231
     88  CA        11.0890  -61.7910    7.9350 C.3   136  ILE136      0.1692
     89  C         12.5580  -61.5020    7.6490 C.2   136  ILE136      0.2593
     90  O         13.1150  -60.5300    8.1700 O.2   136  ILE136     -0.2718
     91  CB        10.2520  -60.9960    6.9150 C.3   136  ILE136      0.0266
     92  CG1        8.7610  -61.0090    7.2840 C.3   136  ILE136      0.0019
     93  CG2       10.4820  -61.5340    5.5040 C.3   136  ILE136      0.0020
     94  CD1        8.1320  -62.3750    7.3160 C.3   136  ILE136      0.0001
     95  N         13.1810  -62.3480    6.8250 N.am  137  GLY137     -0.1942
     96  CA        14.5530  -62.1170    6.3610 C.3   137  GLY137      0.2014
     97  C         14.6160  -60.9290    5.4230 C.2   137  GLY137      0.2639
     98  O         13.6210  -60.5740    4.7970 O.2   137  GLY137     -0.2714
     99  N         15.7880  -60.3050    5.3330 N.am  138  CYS138     -0.1967
    100  CA        15.9410  -59.0880    4.5330 C.3   138  CYS138      0.1712
    101  C         17.3020  -58.9380    3.8400 C.2   138  CYS138      0.2296
    102  O         17.8110  -57.8330    3.6780 O.2   138  CYS138     -0.2864
    103  CB        15.6690  -57.8770    5.4100 C.3   138  CYS138      0.0983
    104  SG        15.1750  -56.4500    4.4500 S.3   138  CYS138     -0.0798
    105  N         17.8950  -59.7700    0.7050 N.3   140  VAL140     -0.1231
    106  CA        17.6830  -59.2820   -0.6480 C.3   140  VAL140      0.1692
    107  C         17.5310  -57.7750   -0.5710 C.2   140  VAL140      0.2592
    108  O         18.1340  -57.0440   -1.3490 O.2   140  VAL140     -0.2718
    109  CB        16.4280  -59.8940   -1.3230 C.3   140  VAL140      0.0266
    110  CG1       16.2570  -59.3400   -2.7270 C.3   140  VAL140      0.0020
    111  CG2       16.5020  -61.4150   -1.3570 C.3   140  VAL140      0.0020
    112  N         16.7250  -57.3170    0.3830 N.am  141  GLY141     -0.1957
    113  CA        16.5210  -55.8840    0.5960 C.3   141  GLY141      0.1869
    114  C         17.8240  -55.1600    0.8990 C.2   141  GLY141      0.2309
    115  O         18.1560  -54.1610    0.2570 O.2   141  GLY141     -0.2863
    116  N         16.3500  -67.0880    4.1640 N.3   229  HIS229     -0.1241
    117  CA        14.9100  -67.2740    4.2340 C.3   229  HIS229      0.1621
    118  C         14.5410  -68.7390    4.5290 C.2   229  HIS229      0.2264
    119  O         13.6000  -68.9920    5.2880 O.2   229  HIS229     -0.2867
    120  CB        14.2220  -66.7650    2.9570 C.3   229  HIS229      0.0745
    121  CG        14.1610  -65.2680    2.8500 C.ar  229  HIS229      0.0817
    122  ND1       13.1580  -64.5220    3.4280 N.ar  229  HIS229     -0.2268
    123  CD2       14.9730  -64.3820    2.2240 C.ar  229  HIS229      0.1154
    124  CE1       13.3560  -63.2420    3.1680 C.ar  229  HIS229      0.1986
    125  NE2       14.4490  -63.1290    2.4360 N.ar  229  HIS229     -0.2212
@<TRIPOS>BOND
     1    48    47    2
     2    47    46    1
     3    45    46    1
     4    46    49    1
     5    49    50    1
     6    41    40    2
     7    50    51   ar
     8    50    52   ar
     9    51    53   ar
    10    40    39    1
    11    38    39    1
    12    52    54   ar
    13    39    42    1
    14    53    55   ar
    15    33    32    2
    16    72    71    2
    17    32    31    1
    18    68    67    1
    19    54    55   ar
    20    55    56    1
    21    42    43    1
    22    42    44    1
    23    71    70    1
    24    19    18    2
    25    16    17    1
    26    18    17    1
    27    18    30   am
    28    17    20    1
    29    31    30    1
    30    31    34    1
    31    64    63    2
    32    36    34    1
    33    67    66    1
    34    70    73    1
    35    70    69    1
    36    34    35    1
    37    66    65    1
    38    73    74    1
    39    22    21   ar
    40    22    24   ar
    41   110   109    1
    42    20    21    1
    43    63    62    1
    44    21    23   ar
    45    76    75    2
    46    24    25   ar
    47    65    62    1
    48    35    37    1
    49    74    75    1
    50     4     3    2
    51    62    61    1
    52   111   109    1
    53   108   107    2
    54   109   106    1
    55    75    77   am
    56     6     5    1
    57     6     7    1
    58    23    25   ar
    59    23    26   ar
    60     3     5   am
    61     3     2    1
    62    25    27   ar
    63   106   107    1
    64   106   105    1
    65     1     2    1
    66   107   112   am
    67     7     8    2
    68    60    59    2
    69    61    59   am
    70    26    28   ar
    71    27    29   ar
    72    59    58    1
    73   115   114    2
    74   112   113    1
    75   113   114    1
    76    28    29   ar
    77    58    57    1
    78    15    13    1
    79     9    10    1
    80   123   125   ar
    81   123   121   ar
    82   125   124   ar
    83   121   120    1
    84   121   122   ar
    85    10    13    1
    86    10    11    1
    87   120   117    1
    88   124   122   ar
    89    13    14    1
    90   102   101    2
    91   101   100    1
    92   116   117    1
    93    11    12    2
    94    86    84   ar
    95   117   118    1
    96   104   103    1
    97   118   119    2
    98   100    99    1
    99   100   103    1
   100    84    85   ar
   101    84    83    1
   102    98    97    2
   103    83    82    1
   104    99    97   am
   105    97    96    1
   106    93    91    1
   107    96    95    1
   108    82    79    1
   109    95    89   am
   110    91    92    1
   111    91    88    1
   112    92    94    1
   113    78    79    1
   114    79    80    1
   115    89    88    1
   116    89    90    2
   117    88    87    1
   118    80    81    2
