@<TRIPOS>MOLECULE
tmp/2a81A00.pdb
 100 98 0 0 0
SMALL
GASTEIGER

@<TRIPOS>ATOM
      1  N         -7.1960  -56.2430   -3.9520 N.3    19  ASN19      -0.1225
      2  CA        -6.8660  -55.4750   -2.7560 C.3    19  ASN19       0.1785
      3  C         -6.2580  -54.1080   -3.0790 C.2    19  ASN19       0.2597
      4  O         -5.3430  -53.9980   -3.8830 O.2    19  ASN19      -0.2718
      5  CB        -5.8990  -56.2610   -1.8880 C.3    19  ASN19       0.1169
      6  CG        -5.6240  -55.5720   -0.5870 C.2    19  ASN19       0.2627
      7  OD1       -4.5570  -54.9980   -0.3960 O.2    19  ASN19      -0.2716
      8  ND2       -6.5980  -55.5920    0.3090 N.am   19  ASN19      -0.0877
      9  N         -6.7590  -53.0690   -2.4240 N.am   20  LYS20      -0.1966
     10  CA        -6.3580  -51.6940   -2.7300 C.3    20  LYS20       0.1728
     11  C         -4.8700  -51.4790   -2.5730 C.2    20  LYS20       0.2616
     12  O         -4.2900  -50.6080   -3.2140 O.2    20  LYS20      -0.2715
     13  CB        -7.1320  -50.6790   -1.8640 C.3    20  LYS20       0.0311
     14  CG        -7.0440  -50.8880   -0.3370 C.3    20  LYS20       0.0038
     15  CD        -8.1790  -50.1630    0.4290 C.3    20  LYS20       0.0206
     16  CE        -7.7630  -48.7640    0.9140 C.3    20  LYS20       0.1093
     17  NZ        -7.0170  -47.9760   -0.1180 N.3    20  LYS20      -0.1314
     18  N         -4.2510  -52.2910   -1.7320 N.am   21  HIS21      -0.1973
     19  CA        -2.8440  -52.1130   -1.4280 C.3    21  HIS21       0.1656
     20  C         -1.9130  -52.8930   -2.3580 C.2    21  HIS21       0.2291
     21  O         -0.7140  -52.9760   -2.0960 O.2    21  HIS21      -0.2864
     22  CB        -2.5730  -52.4610    0.0400 C.3    21  HIS21       0.0771
     23  CG        -3.2630  -51.5490    1.0040 C.ar   21  HIS21       0.0820
     24  ND1       -2.8530  -50.2510    1.2160 N.ar   21  HIS21      -0.2267
     25  CD2       -4.3440  -51.7360    1.7950 C.ar   21  HIS21       0.1154
     26  CE1       -3.6470  -49.6800    2.1030 C.ar   21  HIS21       0.1986
     27  NE2       -4.5590  -50.5600    2.4720 N.ar   21  HIS21      -0.2212
     28  N         -0.9470  -55.9580   -3.1500 N.3    23  PRO23      -0.2116
     29  CA         0.0620  -56.8790   -2.6480 C.3    23  PRO23       0.1372
     30  C          0.5410  -57.7370   -3.7940 C.2    23  PRO23       0.2244
     31  O         -0.2500  -58.0780   -4.6730 O.2    23  PRO23      -0.2868
     32  CB        -0.7040  -57.7200   -1.6260 C.3    23  PRO23       0.0268
     33  CG        -2.1120  -57.6610   -2.0830 C.3    23  PRO23       0.0207
     34  CD        -2.2950  -56.3000   -2.6680 C.3    23  PRO23       0.0892
     35  N          1.9530  -52.9290   -1.0780 N.3    60  ALA60      -0.1245
     36  CA         2.3390  -53.2200    0.3000 C.3    60  ALA60       0.1562
     37  C          3.1620  -54.5000    0.3740 C.2    60  ALA60       0.2260
     38  O          3.0170  -55.2700    1.3180 O.2    60  ALA60      -0.2867
     39  CB         1.1170  -53.3270    1.1920 C.3    60  ALA60       0.0290
     40  N          4.7890  -58.2440   -0.7530 N.3    62  GLY62      -0.1210
     41  CA         4.2240  -59.5240   -1.1610 C.3    62  GLY62       0.1956
     42  C          2.9570  -59.9070   -0.4260 C.2    62  GLY62       0.2612
     43  O          2.5290  -59.2270    0.4960 O.2    62  GLY62      -0.2717
     44  N          2.3570  -61.0130   -0.8430 N.am   63  ASP63      -0.1959
     45  CA         1.1240  -61.4880   -0.2380 C.3    63  ASP63       0.1840
     46  C          1.4280  -62.2530    1.0430 C.2    63  ASP63       0.2622
     47  O          2.0050  -63.3430    1.0050 O.2    63  ASP63      -0.2715
     48  CB         0.3470  -62.3790   -1.2150 C.3    63  ASP63       0.1450
     49  CG        -1.0870  -62.6420   -0.7640 C.2    63  ASP63       0.3671
     50  OD1       -1.4630  -62.2110    0.3440 O.co2  63  ASP63      -0.2456
     51  OD2       -1.8450  -63.2830   -1.5190 O.co2  63  ASP63      -0.2456
     52  N          1.0190  -61.6720    2.1700 N.am   64  PHE64      -0.1960
     53  CA         1.1620  -62.2880    3.4880 C.3    64  PHE64       0.1771
     54  C          0.5840  -63.6990    3.5190 C.2    64  PHE64       0.2619
     55  O          1.0010  -64.5210    4.3220 O.2    64  PHE64      -0.2715
     56  CB         0.4620  -61.4290    4.5400 C.3    64  PHE64       0.0574
     57  CG         1.1510  -61.4210    5.8860 C.ar   64  PHE64      -0.0200
     58  CD1        2.2700  -60.6000    6.1070 C.ar   64  PHE64      -0.0042
     59  CD2        0.6590  -62.2100    6.9520 C.ar   64  PHE64      -0.0042
     60  CE1        2.9060  -60.5740    7.3650 C.ar   64  PHE64      -0.0003
     61  CE2        1.2840  -62.1960    8.2150 C.ar   64  PHE64      -0.0003
     62  CZ         2.4110  -61.3800    8.4220 C.ar   64  PHE64      -0.0000
     63  N         -0.3770  -63.9650    2.6390 N.am   65  ASN65      -0.1972
     64  CA        -0.9480  -65.3070    2.4650 C.3    65  ASN65       0.1688
     65  C          0.0310  -66.3310    1.8850 C.2    65  ASN65       0.2292
     66  O          0.0640  -67.4790    2.3370 O.2    65  ASN65      -0.2864
     67  CB        -2.1850  -65.2360    1.5760 C.3    65  ASN65       0.1181
     68  CG        -3.1830  -64.2150    2.0670 C.2    65  ASN65       0.2629
     69  OD1       -3.2780  -63.9530    3.2690 O.2    65  ASN65      -0.2716
     70  ND2       -3.9200  -63.6130    1.1380 N.am   65  ASN65      -0.0877
     71  N          1.3700  -46.8510    0.2280 N.3   104  TYR104     -0.1241
     72  CA         2.4820  -47.5360    0.8600 C.3   104  TYR104      0.1605
     73  C          3.3230  -48.2820   -0.1600 C.2   104  TYR104      0.2264
     74  O          2.7940  -48.9250   -1.0590 O.2   104  TYR104     -0.2867
     75  CB         1.9590  -48.5240    1.9110 C.3   104  TYR104      0.0534
     76  CG         1.5540  -47.8820    3.2260 C.ar  104  TYR104     -0.0201
     77  CD1        2.5210  -47.3640    4.0950 C.ar  104  TYR104     -0.0009
     78  CD2        0.2210  -47.8020    3.6080 C.ar  104  TYR104     -0.0009
     79  CE1        2.1640  -46.7690    5.2940 C.ar  104  TYR104      0.0417
     80  CE2       -0.1450  -47.2130    4.8070 C.ar  104  TYR104      0.0417
     81  CZ         0.8290  -46.6970    5.6450 C.ar  104  TYR104      0.1957
     82  OH         0.4810  -46.1100    6.8410 O.3   104  TYR104     -0.2866
     83  N          5.9810  -51.0330    0.6290 N.3   106  ILE106     -0.1245
     84  CA         6.5420  -51.7630    1.7560 C.3   106  ILE106      0.1561
     85  C          7.3600  -52.9490    1.2720 C.2   106  ILE106      0.2260
     86  O          6.9830  -53.6120    0.3030 O.2   106  ILE106     -0.2867
     87  CB         5.4320  -52.2630    2.6840 C.3   106  ILE106      0.0252
     88  CG1        4.6770  -51.0770    3.2780 C.3   106  ILE106      0.0019
     89  CG2        6.0090  -53.1210    3.7920 C.3   106  ILE106      0.0019
     90  CD1        3.4140  -51.4660    4.0090 C.3   106  ILE106      0.0001
     91  N          9.3450  -57.6460   11.8970 N.3   134  HIS134     -0.1241
     92  CA         8.2920  -58.6430   11.7430 C.3   134  HIS134      0.1621
     93  C          8.7800  -60.0960   11.7520 C.2   134  HIS134      0.2264
     94  O          7.9770  -61.0160   11.8310 O.2   134  HIS134     -0.2867
     95  CB         7.5330  -58.3610   10.4520 C.3   134  HIS134      0.0745
     96  CG         6.8250  -57.0440   10.4560 C.ar  134  HIS134      0.0817
     97  ND1        5.9400  -56.6690    9.4660 N.ar  134  HIS134     -0.2268
     98  CD2        6.8480  -56.0210   11.3420 C.ar  134  HIS134      0.1154
     99  CE1        5.4650  -55.4650    9.7340 C.ar  134  HIS134      0.1986
    100  NE2        5.9980  -55.0510   10.8690 N.ar  134  HIS134     -0.2212
@<TRIPOS>BOND
     1    31    30    2
     2     1     2    1
     3     4     3    2
     4    30    29    1
     5    12    11    2
     6    28    34    1
     7    28    29    1
     8     3     2    1
     9     3     9   am
    10     2     5    1
    11    10    11    1
    12    10     9    1
    13    10    13    1
    14    34    33    1
    15    29    32    1
    16    11    18   am
    17    20    21    2
    18    20    19    1
    19    33    32    1
    20     5     6    1
    21    13    14    1
    22    18    19    1
    23    51    49   ar
    24    19    22    1
    25    48    49    1
    26    48    45    1
    27    41    40    1
    28    41    42    1
    29    35    36    1
    30    74    73    2
    31    44    42   am
    32    44    45    1
    33    49    50   ar
    34     6     7    2
    35     6     8   am
    36    42    43    2
    37    14    15    1
    38    45    46    1
    39    73    72    1
    40    17    16    1
    41    22    23    1
    42    71    72    1
    43    36    37    1
    44    36    39    1
    45    86    85    2
    46    37    38    2
    47    15    16    1
    48    83    84    1
    49    72    75    1
    50    23    24   ar
    51    23    25   ar
    52    47    46    2
    53    46    52   am
    54    70    68   am
    55    24    26   ar
    56    85    84    1
    57    67    68    1
    58    67    64    1
    59    84    87    1
    60    25    27   ar
    61    65    66    2
    62    65    64    1
    63    75    76    1
    64    68    69    2
    65    26    27   ar
    66    52    53    1
    67    64    63    1
    68    63    54   am
    69    87    88    1
    70    87    89    1
    71    76    78   ar
    72    76    77   ar
    73    88    90    1
    74    53    54    1
    75    53    56    1
    76    54    55    2
    77    78    80   ar
    78    77    79   ar
    79    56    57    1
    80    80    81   ar
    81    79    81   ar
    82    81    82    1
    83    57    58   ar
    84    57    59   ar
    85    58    60   ar
    86    59    61   ar
    87    60    62   ar
    88    61    62   ar
    89    97    99   ar
    90    97    96   ar
    91    99   100   ar
    92    95    96    1
    93    95    92    1
    94    96    98   ar
    95   100    98   ar
    96    92    93    1
    97    92    91    1
    98    93    94    2
