@<TRIPOS>MOLECULE
tmp/2a85A02.pdb
 113 105 0 0 0
SMALL
GASTEIGER

@<TRIPOS>ATOM
      1  N         75.4470   87.3120   12.8900 N.3    23  TYR23      -0.1241
      2  CA        74.5080   87.0080   13.9690 C.3    23  TYR23       0.1605
      3  C         75.2450   86.2130   15.0540 C.2    23  TYR23       0.2264
      4  O         75.0910   86.4650   16.2490 O.2    23  TYR23      -0.2867
      5  CB        73.3420   86.1670   13.4490 C.3    23  TYR23       0.0534
      6  CG        72.5910   85.4430   14.5470 C.ar   23  TYR23      -0.0201
      7  CD1       71.7730   86.1370   15.4420 C.ar   23  TYR23      -0.0009
      8  CD2       72.7240   84.0630   14.7140 C.ar   23  TYR23      -0.0009
      9  CE1       71.1080   85.4750   16.4720 C.ar   23  TYR23       0.0417
     10  CE2       72.0620   83.3910   15.7430 C.ar   23  TYR23       0.0417
     11  CZ        71.2580   84.1040   16.6150 C.ar   23  TYR23       0.1957
     12  OH        70.6020   83.4390   17.6280 O.3    23  TYR23      -0.2866
     13  N         70.4980   80.0980   20.7120 N.3    78  ALA78      -0.1245
     14  CA        69.3190   80.2210   19.8460 C.3    78  ALA78       0.1562
     15  C         69.6330   80.1370   18.3690 C.2    78  ALA78       0.2260
     16  O         70.7380   80.4770   17.9490 O.2    78  ALA78      -0.2867
     17  CB        68.5870   81.5510   20.1190 C.3    78  ALA78       0.0290
     18  N         64.6460   79.2090   22.5550 N.3   107  ALA107     -0.1245
     19  CA        64.4930   79.6040   21.1580 C.3   107  ALA107      0.1562
     20  C         65.2340   78.6770   20.1870 C.2   107  ALA107      0.2260
     21  O         65.9400   79.1390   19.2930 O.2   107  ALA107     -0.2867
     22  CB        64.9750   81.0380   20.9760 C.3   107  ALA107      0.0290
     23  N         63.5360   80.8670   28.9250 N.3   128  TYR128     -0.1241
     24  CA        63.3780   82.3130   28.7630 C.3   128  TYR128      0.1605
     25  C         61.8930   82.4980   29.0850 C.2   128  TYR128      0.2264
     26  O         61.0680   81.6980   28.6340 O.2   128  TYR128     -0.2867
     27  CB        63.6170   82.7570   27.3170 C.3   128  TYR128      0.0534
     28  CG        65.0420   83.1100   26.9640 C.ar  128  TYR128     -0.0201
     29  CD1       65.8410   83.8470   27.8380 C.ar  128  TYR128     -0.0009
     30  CD2       65.5650   82.7760   25.7160 C.ar  128  TYR128     -0.0009
     31  CE1       67.1240   84.2470   27.4750 C.ar  128  TYR128      0.0417
     32  CE2       66.8390   83.1720   25.3440 C.ar  128  TYR128      0.0417
     33  CZ        67.6110   83.9100   26.2270 C.ar  128  TYR128      0.1957
     34  OH        68.8570   84.3320   25.8430 O.3   128  TYR128     -0.2866
     35  N         68.5250   88.8530   29.7590 N.3   156  VAL156     -0.1245
     36  CA        67.8850   89.3220   28.5450 C.3   156  VAL156      0.1561
     37  C         66.5490   89.9730   28.8910 C.2   156  VAL156      0.2260
     38  O         65.5280   89.6790   28.2730 O.2   156  VAL156     -0.2867
     39  CB        67.6770   88.1730   27.5210 C.3   156  VAL156      0.0252
     40  CG1       67.3200   88.7530   26.1550 C.3   156  VAL156      0.0019
     41  CG2       68.9400   87.3440   27.3990 C.3   156  VAL156      0.0019
     42  N         66.3540   93.2220   24.8630 N.3   159  ASN159     -0.1225
     43  CA        67.3140   92.7730   23.8650 C.3   159  ASN159      0.1785
     44  C         68.5700   93.6460   23.8060 C.2   159  ASN159      0.2597
     45  O         68.4910   94.8750   23.8960 O.2   159  ASN159     -0.2718
     46  CB        66.6260   92.7320   22.4990 C.3   159  ASN159      0.1169
     47  CG        65.4700   91.7420   22.4610 C.2   159  ASN159      0.2627
     48  OD1       64.7000   91.7000   21.5000 O.2   159  ASN159     -0.2716
     49  ND2       65.3500   90.9310   23.5090 N.am  159  ASN159     -0.0877
     50  N         69.7260   92.9980   23.6700 N.am  160  GLY160     -0.1957
     51  CA        70.9850   93.7160   23.5840 C.3   160  GLY160      0.1869
     52  C         71.1410   94.4220   22.2450 C.2   160  GLY160      0.2309
     53  O         70.7590   93.8860   21.1990 O.2   160  GLY160     -0.2863
     54  N         72.7650   94.9690   19.3410 N.3   162  ARG162     -0.1245
     55  CA        73.7650   94.3590   18.4900 C.3   162  ARG162      0.1563
     56  C         73.6570   94.9740   17.1020 C.2   162  ARG162      0.2260
     57  O         72.7780   94.6270   16.3140 O.2   162  ARG162     -0.2867
     58  CB        73.5480   92.8470   18.4710 C.3   162  ARG162      0.0307
     59  CG        73.6000   92.2560   19.8810 C.3   162  ARG162      0.0489
     60  CD        73.9910   90.7890   19.8910 C.3   162  ARG162      0.2205
     61  NE        72.8700   89.9080   19.5940 N.pl3 162  ARG162     -0.0865
     62  CZ        72.0590   89.3850   20.5060 C.cat 162  ARG162      0.5346
     63  NH1       72.2340   89.6430   21.7970 N.pl3 162  ARG162      0.1354
     64  NH2       71.0670   88.5990   20.1200 N.pl3 162  ARG162      0.1354
     65  N         59.3410   90.1910   20.6400 N.3   203  ARG203     -0.1245
     66  CA        60.6720   89.6110   20.7580 C.3   203  ARG203      0.1563
     67  C         61.1810   90.0710   22.1200 C.2   203  ARG203      0.2260
     68  O         62.3600   89.9230   22.4450 O.2   203  ARG203     -0.2867
     69  CB        61.5880   90.1460   19.6550 C.3   203  ARG203      0.0307
     70  CG        61.0740   89.9140   18.2420 C.3   203  ARG203      0.0489
     71  CD        62.0070   90.5300   17.2090 C.3   203  ARG203      0.2205
     72  NE        61.5110   90.3530   15.8470 N.pl3 203  ARG203     -0.0865
     73  CZ        62.1250   90.8150   14.7620 C.cat 203  ARG203      0.5346
     74  NH1       63.2630   91.4850   14.8750 N.pl3 203  ARG203      0.1354
     75  NH2       61.6000   90.6060   13.5620 N.pl3 203  ARG203      0.1354
     76  N         60.8230   89.9340   26.3050 N.3   205  MET205     -0.1245
     77  CA        60.4440   89.0510   27.3960 C.3   205  MET205      0.1570
     78  C         60.0110   89.7840   28.6510 C.2   205  MET205      0.2261
     79  O         60.0840   91.0100   28.7360 O.2   205  MET205     -0.2867
     80  CB        61.6040   88.1290   27.7460 C.3   205  MET205      0.0387
     81  CG        62.0120   87.2090   26.6260 C.3   205  MET205      0.0595
     82  SD        63.3030   86.1080   27.1720 S.3   205  MET205     -0.1393
     83  CE        64.7210   87.0290   26.7190 C.3   205  MET205      0.0692
     84  N         76.6300   86.6570   28.7420 N.3   252  HIS252     -0.1241
     85  CA        76.0200   86.2830   27.4740 C.3   252  HIS252      0.1621
     86  C         76.9670   86.3590   26.2890 C.2   252  HIS252      0.2264
     87  O         76.5410   86.6730   25.1750 O.2   252  HIS252     -0.2867
     88  CB        74.8160   87.1770   27.1970 C.3   252  HIS252      0.0745
     89  CG        73.6310   86.4450   26.6510 C.ar  252  HIS252      0.0817
     90  ND1       72.7010   85.8340   27.4610 N.ar  252  HIS252     -0.2268
     91  CD2       73.2280   86.2250   25.3770 C.ar  252  HIS252      0.1154
     92  CE1       71.7720   85.2670   26.7080 C.ar  252  HIS252      0.1986
     93  NE2       72.0700   85.4890   25.4420 N.ar  252  HIS252     -0.2212
     94  N         77.1410   89.7620   24.2820 N.3   255  ARG255     -0.1231
     95  CA        76.0560   90.1370   23.3880 C.3   255  ARG255      0.1694
     96  C         74.9480   90.9910   24.0040 C.2   255  ARG255      0.2591
     97  O         74.1000   91.5140   23.2790 O.2   255  ARG255     -0.2718
     98  CB        75.4450   88.8670   22.7910 C.3   255  ARG255      0.0321
     99  CG        76.4340   88.0400   21.9930 C.3   255  ARG255      0.0489
    100  CD        75.9760   86.5950   21.8610 C.3   255  ARG255      0.2205
    101  NE        74.8090   86.4100   20.9980 N.pl3 255  ARG255     -0.0865
    102  CZ        74.8490   86.4230   19.6690 C.cat 255  ARG255      0.5346
    103  NH1       75.9980   86.6200   19.0360 N.pl3 255  ARG255      0.1354
    104  NH2       73.7460   86.2050   18.9710 N.pl3 255  ARG255      0.1354
    105  N         74.9510   91.1490   25.3240 N.am  256  GLN256     -0.1979
    106  CA        73.9020   91.9270   25.9710 C.3   256  GLN256      0.1601
    107  C         74.2820   93.3190   26.4350 C.2   256  GLN256      0.2287
    108  O         73.6200   94.2940   26.0860 O.2   256  GLN256     -0.2864
    109  CB        73.3180   91.1330   27.1370 C.3   256  GLN256      0.0394
    110  CG        72.4030   90.0110   26.6710 C.3   256  GLN256      0.0908
    111  CD        71.2270   90.5360   25.8720 C.2   256  GLN256      0.2608
    112  OE1       70.3490   91.2080   26.4110 O.2   256  GLN256     -0.2717
    113  NE2       71.2080   90.2400   24.5770 N.am  256  GLN256     -0.0878
@<TRIPOS>BOND
     1     1     2    1
     2     5     2    1
     3     5     6    1
     4    75    73    1
     5     2     3    1
     6     6     8   ar
     7     6     7   ar
     8     8    10   ar
     9    73    74    1
    10    73    72    2
    11     3     4    2
    12     7     9   ar
    13    10    11   ar
    14    72    71    1
    15    57    56    2
    16     9    11   ar
    17    11    12    1
    18    56    55    1
    19    71    70    1
    20    16    15    2
    21    70    69    1
    22    15    14    1
    23    58    55    1
    24    58    59    1
    25    55    54    1
    26   104   102    1
    27   103   102    1
    28    21    20    2
    29    61    60    1
    30    61    62    2
    31    69    66    1
    32   102   101    2
    33    14    17    1
    34    14    13    1
    35    59    60    1
    36    64    62    1
    37    20    19    1
    38    62    63    1
    39    65    66    1
    40    66    67    1
    41    22    19    1
    42   101   100    1
    43    19    18    1
    44    53    52    2
    45    48    47    2
    46   100    99    1
    47    99    98    1
    48    67    68    2
    49    52    51    1
    50    47    46    1
    51    47    49   am
    52    46    43    1
    53    98    95    1
    54    97    96    2
    55    95    96    1
    56    95    94    1
    57    51    50    1
    58    50    44   am
    59    44    43    1
    60    44    45    2
    61    43    42    1
    62    96   105   am
    63   113   111   am
    64    87    86    2
    65   105   106    1
    66    32    30   ar
    67    32    33   ar
    68    91    93   ar
    69    91    89   ar
    70    93    92   ar
    71    30    28   ar
    72    34    33    1
    73   111   112    2
    74   111   110    1
    75   106   107    1
    76   106   109    1
    77   108   107    2
    78    40    39    1
    79    33    31   ar
    80    86    85    1
    81    76    77    1
    82    81    82    1
    83    81    80    1
    84    89    88    1
    85    89    90   ar
    86   110   109    1
    87    92    90   ar
    88    83    82    1
    89    28    27    1
    90    28    29   ar
    91    88    85    1
    92    27    24    1
    93    77    80    1
    94    77    78    1
    95    41    39    1
    96    85    84    1
    97    31    29   ar
    98    39    36    1
    99    38    37    2
   100    36    37    1
   101    36    35    1
   102    26    25    2
   103    78    79    2
   104    24    23    1
   105    24    25    1
