@<TRIPOS>MOLECULE
tmp/2a86A00.pdb
 168 163 0 0 0
SMALL
GASTEIGER

@<TRIPOS>ATOM
      1  N         25.9630   36.0840   46.3390 N.3    36  PRO36      -0.2102
      2  CA        27.1830   36.2880   47.1040 C.3    36  PRO36       0.1504
      3  C         28.3310   36.6600   46.1890 C.2    36  PRO36       0.2576
      4  O         28.6070   35.9590   45.2020 O.2    36  PRO36      -0.2718
      5  CB        27.4440   34.9230   47.7640 C.3    36  PRO36       0.0282
      6  CG        26.0370   34.2640   47.7940 C.3    36  PRO36       0.0208
      7  CD        25.5100   34.6710   46.3860 C.3    36  PRO36       0.0893
      8  N         28.9780   37.7660   46.5330 N.am   37  THR37      -0.1939
      9  CA        30.2230   38.1990   45.8780 C.3    37  THR37       0.2028
     10  C         31.2780   38.6940   46.8600 C.2    37  THR37       0.2642
     11  O         31.0060   38.9200   48.0270 O.2    37  THR37      -0.2714
     12  CB        30.0020   39.3350   44.8470 C.3    37  THR37       0.1808
     13  OG1       29.9170   40.6150   45.5260 O.3    37  THR37      -0.2208
     14  CG2       28.6120   39.1950   44.1490 C.3    37  THR37       0.0379
     15  N         32.4940   38.7920   46.3390 N.am   38  MET38      -0.1962
     16  CA        33.5610   39.4690   47.0450 C.3    38  MET38       0.1736
     17  C         33.8510   40.8380   46.4510 C.2    38  MET38       0.2617
     18  O         34.9310   41.3680   46.6070 O.2    38  MET38      -0.2715
     19  CB        34.7750   38.5660   47.0470 C.3    38  MET38       0.0427
     20  CG        34.4430   37.2600   47.8400 C.3    38  MET38       0.0599
     21  SD        35.9410   36.5390   48.6230 S.3    38  MET38      -0.1393
     22  CE        36.8370   36.1000   47.1910 C.3    38  MET38       0.0692
     23  N         32.8430   41.4330   45.8280 N.am   39  GLY39      -0.1955
     24  CA        33.0400   42.7400   45.1870 C.3    39  GLY39       0.1869
     25  C         33.9760   42.8120   43.9870 C.2    39  GLY39       0.2309
     26  O         34.2790   41.7870   43.3480 O.2    39  GLY39      -0.2863
     27  N         32.2840   42.8380   38.0230 N.3    42  HIS42      -0.1241
     28  CA        32.4430   42.8970   36.5830 C.3    42  HIS42       0.1621
     29  C         31.2280   42.1850   35.9510 C.2    42  HIS42       0.2264
     30  O         30.2810   41.7800   36.6650 O.2    42  HIS42      -0.2867
     31  CB        33.7970   42.2500   36.1970 C.3    42  HIS42       0.0745
     32  CG        33.9760   40.8590   36.7370 C.ar   42  HIS42       0.0817
     33  ND1       33.2180   39.7930   36.3080 N.ar   42  HIS42      -0.2268
     34  CD2       34.7880   40.3740   37.7080 C.ar   42  HIS42       0.1154
     35  CE1       33.5560   38.7060   36.9790 C.ar   42  HIS42       0.1986
     36  NE2       34.5090   39.0330   37.8350 N.ar   42  HIS42      -0.2212
     37  N         30.7160   39.3400   34.7420 N.3    44  GLY44      -0.1210
     38  CA        30.4650   37.9970   35.2390 C.3    44  GLY44       0.1956
     39  C         29.4860   38.0340   36.4280 C.2    44  GLY44       0.2611
     40  O         28.4890   37.2800   36.4860 O.2    44  GLY44      -0.2717
     41  N         29.7730   38.9200   37.3690 N.am   45  HIS45      -0.1975
     42  CA        28.8940   39.1140   38.5230 C.3    45  HIS45       0.1656
     43  C         27.5630   39.6000   38.0050 C.2    45  HIS45       0.2291
     44  O         26.5430   39.1600   38.5180 O.2    45  HIS45      -0.2864
     45  CB        29.4430   40.1530   39.4820 C.3    45  HIS45       0.0771
     46  CG        30.7400   39.7530   40.1360 C.ar   45  HIS45       0.0820
     47  ND1       31.9360   40.3790   39.8600 N.ar   45  HIS45      -0.2267
     48  CD2       31.0250   38.7730   41.0390 C.ar   45  HIS45       0.1154
     49  CE1       32.8900   39.8510   40.6100 C.ar   45  HIS45       0.1986
     50  NE2       32.3660   38.8690   41.3290 N.ar   45  HIS45      -0.2212
     51  N         24.9550   37.0280   37.0730 N.3    48  LEU48      -0.1245
     52  CA        24.2290   36.4530   38.2330 C.3    48  LEU48       0.1561
     53  C         23.1290   37.4200   38.7200 C.2    48  LEU48       0.2260
     54  O         21.9920   36.9880   38.9940 O.2    48  LEU48      -0.2867
     55  CB        25.2060   36.1690   39.4030 C.3    48  LEU48       0.0270
     56  CG        25.9800   34.8380   39.3710 C.3    48  LEU48       0.0019
     57  CD1       26.9720   34.7780   38.1900 C.3    48  LEU48       0.0001
     58  CD2       26.6920   34.5560   40.6970 C.3    48  LEU48       0.0001
     59  N         38.2700   32.4190   54.0490 N.3    70  GLN70      -0.1245
     60  CA        38.6280   31.6120   52.8820 C.3    70  GLN70       0.1566
     61  C         39.9670   31.9820   52.2500 C.2    70  GLN70       0.2260
     62  O         40.3300   31.4340   51.1870 O.2    70  GLN70      -0.2867
     63  CB        37.5490   31.6740   51.8360 C.3    70  GLN70       0.0367
     64  CG        37.3720   33.0320   51.0550 C.3    70  GLN70       0.0905
     65  CD        36.0160   32.9880   50.2730 C.2    70  GLN70       0.2608
     66  OE1       34.9510   32.9630   50.8960 O.2    70  GLN70      -0.2717
     67  NE2       36.0760   32.9630   48.9410 N.am   70  GLN70      -0.0878
     68  N         43.5380   41.4210   47.8520 N.3    80  TYR80      -0.1241
     69  CA        42.2970   41.2610   47.0830 C.3    80  TYR80       0.1605
     70  C         41.7690   42.6410   46.6380 C.2    80  TYR80       0.2264
     71  O         41.7950   43.5760   47.4360 O.2    80  TYR80      -0.2867
     72  CB        41.1980   40.5120   47.8770 C.3    80  TYR80       0.0534
     73  CG        40.2040   39.9400   46.9060 C.ar   80  TYR80      -0.0201
     74  CD1       40.4900   38.7400   46.2380 C.ar   80  TYR80      -0.0009
     75  CD2       38.9850   40.6020   46.6200 C.ar   80  TYR80      -0.0009
     76  CE1       39.6270   38.2290   45.2660 C.ar   80  TYR80       0.0417
     77  CE2       38.1000   40.0830   45.6510 C.ar   80  TYR80       0.0417
     78  CZ        38.4200   38.9070   44.9940 C.ar   80  TYR80       0.1957
     79  OH        37.5430   38.4070   44.0700 O.3    80  TYR80      -0.2866
     80  N         25.1970   31.1360   41.9690 N.3   155  PHE155     -0.1227
     81  CA        26.6360   30.9370   41.8980 C.3   155  PHE155      0.1736
     82  C         27.0740   30.7180   40.4360 C.2   155  PHE155      0.2596
     83  O         26.3470   30.0690   39.6640 O.2   155  PHE155     -0.2718
     84  CB        27.0620   29.7260   42.7570 C.3   155  PHE155      0.0547
     85  CG        27.0980   30.0280   44.2460 C.ar  155  PHE155     -0.0202
     86  CD1       25.9830   29.7840   45.0520 C.ar  155  PHE155     -0.0042
     87  CD2       28.2400   30.5800   44.8280 C.ar  155  PHE155     -0.0042
     88  CE1       25.9940   30.0580   46.4300 C.ar  155  PHE155     -0.0003
     89  CE2       28.2590   30.8800   46.2200 C.ar  155  PHE155     -0.0003
     90  CZ        27.1600   30.6200   47.0020 C.ar  155  PHE155     -0.0000
     91  N         28.2520   31.2480   40.0840 N.am  156  GLY156     -0.1957
     92  CA        28.7930   31.0880   38.7180 C.3   156  GLY156      0.1869
     93  C         29.3800   29.7110   38.4590 C.2   156  GLY156      0.2309
     94  O         30.0390   29.1220   39.3090 O.2   156  GLY156     -0.2863
     95  N         31.7550   29.5480   36.6490 N.3   158  LYS158     -0.1231
     96  CA        33.1840   29.9430   36.6900 C.3   158  LYS158      0.1693
     97  C         33.9570   29.2650   37.8430 C.2   158  LYS158      0.2592
     98  O         35.0500   28.7270   37.6690 O.2   158  LYS158     -0.2718
     99  CB        33.2860   31.4750   36.7770 C.3   158  LYS158      0.0285
    100  CG        34.7000   32.0160   37.0940 C.3   158  LYS158      0.0035
    101  CD        35.5740   31.9620   35.8880 C.3   158  LYS158      0.0206
    102  CE        36.8650   32.8120   36.0810 C.3   158  LYS158      0.1093
    103  NZ        37.6450   32.3410   37.2140 N.3   158  LYS158     -0.1314
    104  N         33.3670   29.2600   39.0300 N.am  159  ASP159     -0.1974
    105  CA        33.9530   28.5930   40.1610 C.3   159  ASP159      0.1709
    106  C         33.1870   27.2980   40.3350 C.2   159  ASP159      0.2293
    107  O         32.3780   27.1670   41.2180 O.2   159  ASP159     -0.2864
    108  CB        33.8650   29.4910   41.3800 C.3   159  ASP159      0.1436
    109  CG        34.6000   30.7970   41.1410 C.2   159  ASP159      0.3671
    110  OD1       35.8200   30.7780   41.2720 O.co2 159  ASP159     -0.2456
    111  OD2       34.0530   31.8490   40.7500 O.co2 159  ASP159     -0.2456
    112  N         33.4880   25.2620   43.6120 N.3   162  GLN162     -0.1245
    113  CA        32.7140   25.9750   44.6120 C.3   162  GLN162      0.1566
    114  C         31.2090   25.7050   44.4860 C.2   162  GLN162      0.2260
    115  O         30.5360   25.4160   45.4790 O.2   162  GLN162     -0.2867
    116  CB        32.9510   27.4860   44.4200 C.3   162  GLN162      0.0367
    117  CG        32.0320   28.3010   45.2670 C.3   162  GLN162      0.0905
    118  CD        32.5180   29.7350   45.3640 C.2   162  GLN162      0.2608
    119  OE1       33.3900   30.0570   46.1970 O.2   162  GLN162     -0.2717
    120  NE2       32.0040   30.5740   44.4880 N.am  162  GLN162     -0.0878
    121  N         25.0030   29.6700   37.1610 N.3   182  VAL182     -0.1231
    122  CA        24.9350   30.6300   36.0480 C.3   182  VAL182      0.1678
    123  C         26.1890   30.4360   35.1600 C.2   182  VAL182      0.2434
    124  O         27.3230   30.4260   35.6770 O.2   182  VAL182     -0.2733
    125  CB        24.8690   32.0640   36.6030 C.3   182  VAL182      0.0265
    126  CG1       24.8380   33.1090   35.4390 C.3   182  VAL182      0.0020
    127  CG2       23.5940   32.2530   37.4680 C.3   182  VAL182      0.0020
    128  N         25.9830   30.3080   33.8370 N.am  183  PRO183     -0.2718
    129  CA        27.0740   30.0550   32.8870 C.3   183  PRO183      0.1535
    130  C         28.1470   31.1130   32.9010 C.2   183  PRO183      0.2599
    131  O         27.8840   32.3050   33.1510 O.2   183  PRO183     -0.2715
    132  CB        26.3560   30.0790   31.5310 C.3   183  PRO183      0.0310
    133  CG        25.0120   29.6020   31.8610 C.3   183  PRO183      0.0237
    134  CD        24.6750   30.3560   33.1470 C.3   183  PRO183      0.0939
    135  N         29.3710   30.6680   32.6590 N.am  184  THR184     -0.1937
    136  CA        30.5260   31.5460   32.7060 C.3   184  THR184      0.2028
    137  C         30.5090   32.6730   31.6420 C.2   184  THR184      0.2642
    138  O         30.2910   32.4510   30.4490 O.2   184  THR184     -0.2714
    139  CB        31.7730   30.6890   32.5710 C.3   184  THR184      0.1808
    140  OG1       31.8930   29.8400   33.7390 O.3   184  THR184     -0.2208
    141  CG2       33.0420   31.5690   32.5600 C.3   184  THR184      0.0379
    142  N         30.7260   33.8820   32.1130 N.am  185  VAL185     -0.1977
    143  CA        30.7860   35.0570   31.2470 C.3   185  VAL185      0.1596
    144  C         32.2060   35.2330   30.7810 C.2   185  VAL185      0.2287
    145  O         33.1140   35.2070   31.6150 O.2   185  VAL185     -0.2864
    146  CB        30.2740   36.3690   31.9600 C.3   185  VAL185      0.0276
    147  CG1       30.3820   37.5430   30.9910 C.3   185  VAL185      0.0022
    148  CG2       28.8470   36.2110   32.4080 C.3   185  VAL185      0.0022
    149  N         35.8040   35.9660   32.5810 N.3   193  MET193     -0.1230
    150  CA        35.9470   37.2030   33.3520 C.3   193  MET193      0.1702
    151  C         36.2550   36.8870   34.8040 C.2   193  MET193      0.2593
    152  O         35.6850   35.9620   35.3630 O.2   193  MET193     -0.2718
    153  CB        34.6960   38.0540   33.2360 C.3   193  MET193      0.0401
    154  CG        34.6520   38.6900   31.8460 C.3   193  MET193      0.0596
    155  SD        33.3480   39.8580   31.8140 S.3   193  MET193     -0.1393
    156  CE        33.3380   40.3400   30.0970 C.3   193  MET193      0.0692
    157  N         37.1610   37.6530   35.4010 N.am  194  SER194     -0.1938
    158  CA        37.4710   37.4650   36.8270 C.3   194  SER194      0.2055
    159  C         38.0390   38.7730   37.3480 C.2   194  SER194      0.2643
    160  O         38.6830   39.5150   36.5930 O.2   194  SER194     -0.2714
    161  CB        38.5790   36.4150   36.9390 C.3   194  SER194      0.2130
    162  OG        39.3050   36.5300   38.1560 O.3   194  SER194     -0.2179
    163  N         37.8560   39.0150   38.6520 N.am  195  SER195     -0.1949
    164  CA        38.4310   40.2390   39.2900 C.3   195  SER195      0.1924
    165  C         39.9620   40.1760   39.2570 C.2   195  SER195      0.2314
    166  O         40.6330   41.2150   39.3260 O.2   195  SER195     -0.2863
    167  CB        37.9370   40.3530   40.7370 C.3   195  SER195      0.2116
    168  OG        36.4990   40.4220   40.7820 O.3   195  SER195     -0.2180
@<TRIPOS>BOND
     1   156   155    1
     2   138   137    2
     3   144   143    1
     4   144   145    2
     5   147   146    1
     6   143   146    1
     7   143   142    1
     8   132   133    1
     9   132   129    1
    10   137   142   am
    11   137   136    1
    12   155   154    1
    13   154   153    1
    14   133   134    1
    15   146   148    1
    16   141   139    1
    17   139   136    1
    18   139   140    1
    19   149   150    1
    20   135   136    1
    21   135   130   am
    22   129   130    1
    23   129   128    1
    24   130   131    2
    25   134   128    1
    26   153   150    1
    27   150   151    1
    28   128   123   am
    29    37    38    1
    30   151   152    2
    31   151   157   am
    32   123   124    2
    33   123   122    1
    34    38    39    1
    35   157   158    1
    36   126   125    1
    37   101   102    1
    38   101   100    1
    39    29    28    1
    40    29    30    2
    41   122   125    1
    42   122   121    1
    43   102   103    1
    44    31    28    1
    45    31    32    1
    46    33    32   ar
    47    33    35   ar
    48    39    40    2
    49    39    41   am
    50    28    27    1
    51   160   159    2
    52   125   127    1
    53    95    96    1
    54    96    99    1
    55    96    97    1
    56    32    34   ar
    57    99   100    1
    58   158   161    1
    59   158   159    1
    60   161   162    1
    61    35    36   ar
    62    51    52    1
    63   159   163   am
    64    41    42    1
    65    98    97    2
    66    34    36   ar
    67    97   104   am
    68    43    44    2
    69    43    42    1
    70    57    56    1
    71    52    53    1
    72    52    55    1
    73    93    92    1
    74    93    94    2
    75    42    45    1
    76   163   164    1
    77    92    91    1
    78    53    54    2
    79   104   105    1
    80   165   164    1
    81   165   166    2
    82   164   167    1
    83    56    55    1
    84    56    58    1
    85    45    46    1
    86    83    82    2
    87    47    46   ar
    88    47    49   ar
    89    91    82   am
    90    46    48   ar
    91   105   106    1
    92   105   108    1
    93   106   107    2
    94    82    81    1
    95    49    50   ar
    96   167   168    1
    97   111   109   ar
    98    48    50   ar
    99   109   110   ar
   100   109   108    1
   101    81    80    1
   102    81    84    1
   103    84    85    1
   104    26    25    2
   105   112   113    1
   106    25    24    1
   107    79    78    1
   108    14    12    1
   109    85    87   ar
   110    85    86   ar
   111   116   113    1
   112   116   117    1
   113   114   113    1
   114   114   115    2
   115   120   118   am
   116    87    89   ar
   117    12    13    1
   118    12     9    1
   119    78    76   ar
   120    78    77   ar
   121    86    88   ar
   122    24    23    1
   123     4     3    2
   124    76    74   ar
   125   117   118    1
   126   118   119    2
   127    77    75   ar
   128    23    17   am
   129     9     8    1
   130     9    10    1
   131     3     8   am
   132     3     2    1
   133    89    90   ar
   134    74    73   ar
   135    15    10   am
   136    15    16    1
   137     1     7    1
   138     1     2    1
   139     7     6    1
   140    88    90   ar
   141    17    18    2
   142    17    16    1
   143    75    73   ar
   144    70    69    1
   145    70    71    2
   146    10    11    2
   147    73    72    1
   148    16    19    1
   149    19    20    1
   150    69    68    1
   151    69    72    1
   152     2     5    1
   153    22    21    1
   154     5     6    1
   155    20    21    1
   156    67    65   am
   157    65    66    2
   158    65    64    1
   159    64    63    1
   160    62    61    2
   161    63    60    1
   162    61    60    1
   163    60    59    1
