@<TRIPOS>MOLECULE
tmp/2a87A01.pdb
 217 211 0 0 0
SMALL
GASTEIGER

@<TRIPOS>ATOM
      1  N         -7.2440   20.0750   39.7480 N.3   118  ARG118     -0.1231
      2  CA        -8.3750   19.6520   40.5800 C.3   118  ARG118      0.1694
      3  C         -7.9430   19.5940   42.0460 C.2   118  ARG118      0.2592
      4  O         -6.9550   18.9370   42.4050 O.2   118  ARG118     -0.2718
      5  CB        -8.9680   18.3200   40.1080 C.3   118  ARG118      0.0321
      6  CG        -9.5840   18.4250   38.7210 C.3   118  ARG118      0.0489
      7  CD       -10.6400   17.3900   38.3930 C.3   118  ARG118      0.2205
      8  NE       -10.2550   16.0430   38.8080 N.pl3 118  ARG118     -0.0865
      9  CZ       -10.9500   14.9430   38.5170 C.cat 118  ARG118      0.5346
     10  NH1      -12.0600   15.0160   37.7830 N.pl3 118  ARG118      0.1354
     11  NH2      -10.5330   13.7550   38.9480 N.pl3 118  ARG118      0.1354
     12  N         -8.6910   20.3170   42.8770 N.am  119  TYR119     -0.1962
     13  CA        -8.4110   20.4170   44.3040 C.3   119  TYR119      0.1771
     14  C         -9.4700   19.6790   45.1470 C.2   119  TYR119      0.2619
     15  O        -10.5620   19.3600   44.6650 O.2   119  TYR119     -0.2715
     16  CB        -8.3200   21.8940   44.7120 C.3   119  TYR119      0.0574
     17  CG        -6.9920   22.5460   44.3780 C.ar  119  TYR119     -0.0198
     18  CD1       -5.8280   22.1790   45.0490 C.ar  119  TYR119     -0.0009
     19  CD2       -6.8990   23.5320   43.3950 C.ar  119  TYR119     -0.0009
     20  CE1       -4.6000   22.7690   44.7490 C.ar  119  TYR119      0.0417
     21  CE2       -5.6730   24.1300   43.0840 C.ar  119  TYR119      0.0417
     22  CZ        -4.5320   23.7410   43.7700 C.ar  119  TYR119      0.1957
     23  OH        -3.3240   24.3220   43.4820 O.3   119  TYR119     -0.2866
     24  N         -9.1340   19.4140   46.4080 N.am  120  LEU120     -0.1977
     25  CA       -10.0280   18.7080   47.3260 C.3   120  LEU120      0.1596
     26  C        -11.1260   19.5990   47.9080 C.2   120  LEU120      0.2287
     27  O        -12.1700   19.0890   48.3050 O.2   120  LEU120     -0.2864
     28  CB        -9.2300   18.0550   48.4570 C.3   120  LEU120      0.0297
     29  CG        -8.2700   16.9310   48.0450 C.3   120  LEU120      0.0022
     30  CD1       -7.3960   16.5040   49.2060 C.3   120  LEU120      0.0001
     31  CD2       -9.0210   15.7290   47.4950 C.3   120  LEU120      0.0001
     32  N         -2.4180   12.6910   47.2440 N.3   152  ILE152     -0.1231
     33  CA        -3.8430   12.3620   47.2720 C.3   152  ILE152      0.1692
     34  C         -4.3750   12.0030   45.8730 C.2   152  ILE152      0.2593
     35  O         -4.4190   12.8500   44.9640 O.2   152  ILE152     -0.2718
     36  CB        -4.6440   13.5290   47.9080 C.3   152  ILE152      0.0266
     37  CG1       -3.9510   14.0450   49.1840 C.3   152  ILE152      0.0019
     38  CG2       -6.0730   13.1040   48.2000 C.3   152  ILE152      0.0020
     39  CD1       -3.4780   12.9780   50.1210 C.3   152  ILE152      0.0001
     40  N         -4.7720   10.7370   45.7200 N.am  153  GLY153     -0.1942
     41  CA        -5.2930   10.2120   44.4540 C.3   153  GLY153      0.2014
     42  C         -5.0060    8.7290   44.2830 C.2   153  GLY153      0.2639
     43  O         -4.0830    8.1990   44.9030 O.2   153  GLY153     -0.2714
     44  N         -5.7970    8.0640   43.4410 N.am  154  GLY154     -0.1939
     45  CA        -5.5750    6.6540   43.0970 C.3   154  GLY154      0.2014
     46  C         -5.4120    6.4150   41.6020 C.2   154  GLY154      0.2639
     47  O         -5.8100    5.3680   41.0850 O.2   154  GLY154     -0.2714
     48  N         -4.8230    7.3910   40.9100 N.am  155  GLY155     -0.1939
     49  CA        -4.6170    7.3250   39.4640 C.3   155  GLY155      0.2014
     50  C         -3.1500    7.3690   39.0870 C.2   155  GLY155      0.2639
     51  O         -2.2800    7.5210   39.9490 O.2   155  GLY155     -0.2714
     52  N         -2.8790    7.2430   37.7910 N.am  156  ASP156     -0.1957
     53  CA        -1.5060    7.1510   37.2910 C.3   156  ASP156      0.1840
     54  C         -0.6870    8.3670   37.6590 C.2   156  ASP156      0.2622
     55  O          0.5130    8.2600   37.8930 O.2   156  ASP156     -0.2715
     56  CB        -1.4880    6.9620   35.7750 C.3   156  ASP156      0.1450
     57  CG        -1.6400    5.5130   35.3680 C.2   156  ASP156      0.3671
     58  OD1       -2.2170    4.7170   36.1440 O.co2 156  ASP156     -0.2456
     59  OD2       -1.2040    5.0770   34.2850 O.co2 156  ASP156     -0.2456
     60  N         -1.3490    9.5170   37.6980 N.am  157  SER157     -0.1950
     61  CA        -0.7470   10.7460   38.1670 C.3   157  SER157      0.1924
     62  C         -0.2790   10.5610   39.6190 C.2   157  SER157      0.2314
     63  O          0.9240   10.6180   39.9010 O.2   157  SER157     -0.2863
     64  CB        -1.7810   11.8660   38.0430 C.3   157  SER157      0.2116
     65  OG        -1.3080   13.0920   38.5390 O.3   157  SER157     -0.2180
     66  N          2.7130    8.3230   39.7000 N.3   160  GLU160     -0.1245
     67  CA         3.8800    8.9670   39.1040 C.3   160  GLU160      0.1567
     68  C          4.3950   10.0570   40.0230 C.2   160  GLU160      0.2260
     69  O          5.5960   10.1410   40.3030 O.2   160  GLU160     -0.2867
     70  CB         3.4890    9.5740   37.7490 C.3   160  GLU160      0.0388
     71  CG         4.6080   10.2450   36.9540 C.3   160  GLU160      0.1160
     72  CD         4.0670   11.0230   35.7600 C.2   160  GLU160      0.3649
     73  OE1        3.3130   11.9970   35.9860 O.co2 160  GLU160     -0.2457
     74  OE2        4.3810   10.6630   34.5970 O.co2 160  GLU160     -0.2457
     75  N         -5.9460    7.4490   49.5220 N.3   176  HIS176     -0.1226
     76  CA        -6.9690    7.2410   48.4800 C.3   176  HIS176      0.1752
     77  C         -8.3550    6.8210   49.0150 C.2   176  HIS176      0.2596
     78  O         -8.4800    5.9420   49.8890 O.2   176  HIS176     -0.2718
     79  CB        -6.4830    6.2050   47.4580 C.3   176  HIS176      0.0759
     80  CG        -7.4870    5.8970   46.3870 C.ar  176  HIS176      0.0818
     81  ND1       -7.7790    4.6110   45.9850 N.ar  176  HIS176     -0.2268
     82  CD2       -8.2790    6.7110   45.6470 C.ar  176  HIS176      0.1154
     83  CE1       -8.6940    4.6490   45.0330 C.ar  176  HIS176      0.1986
     84  NE2       -9.0230    5.9090   44.8170 N.ar  176  HIS176     -0.2212
     85  N         -9.3910    7.4360   48.4420 N.am  177  ARG177     -0.1966
     86  CA       -10.7790    7.2610   48.8920 C.3   177  ARG177      0.1729
     87  C        -11.3030    5.8260   48.8800 C.2   177  ARG177      0.2616
     88  O        -12.1400    5.4840   49.7170 O.2   177  ARG177     -0.2715
     89  CB       -11.7130    8.1510   48.0580 C.3   177  ARG177      0.0348
     90  CG       -13.2140    7.8130   48.1220 C.3   177  ARG177      0.0492
     91  CD       -14.1260    8.9600   47.6860 C.3   177  ARG177      0.2205
     92  NE       -13.6140    9.7110   46.5320 N.pl3 177  ARG177     -0.0865
     93  CZ       -14.2270   10.7570   45.9860 C.cat 177  ARG177      0.5346
     94  NH1      -15.3870   11.1940   46.4700 N.pl3 177  ARG177      0.1354
     95  NH2      -13.6850   11.3680   44.9420 N.pl3 177  ARG177      0.1354
     96  N        -10.8430    4.9890   47.9510 N.am  178  ARG178     -0.1977
     97  CA       -11.4340    3.6430   47.8170 C.3   178  ARG178      0.1597
     98  C        -10.4340    2.4850   47.9460 C.2   178  ARG178      0.2287
     99  O         -9.2330    2.7030   48.1090 O.2   178  ARG178     -0.2864
    100  CB       -12.2990    3.5330   46.5510 C.3   178  ARG178      0.0334
    101  CG       -11.5760    3.4960   45.2250 C.3   178  ARG178      0.0492
    102  CD       -12.4650    3.0550   44.0590 C.3   178  ARG178      0.2205
    103  NE       -13.5670    3.9910   43.8040 N.pl3 178  ARG178     -0.0865
    104  CZ       -14.6490    3.7190   43.0740 C.cat 178  ARG178      0.5346
    105  NH1      -14.8210    2.5250   42.5140 N.pl3 178  ARG178      0.1354
    106  NH2      -15.5820    4.6510   42.9160 N.pl3 178  ARG178      0.1354
    107  N         -7.9270    3.3780   40.6000 N.3   182  ARG182     -0.1245
    108  CA        -8.2500    3.6530   39.1980 C.3   182  ARG182      0.1563
    109  C         -6.9880    3.8160   38.3340 C.2   182  ARG182      0.2260
    110  O         -7.0780    4.1390   37.1500 O.2   182  ARG182     -0.2867
    111  CB        -9.2260    4.8280   39.0930 C.3   182  ARG182      0.0307
    112  CG       -10.6960    4.3470   39.1840 C.3   182  ARG182      0.0489
    113  CD       -11.6830    5.3420   39.7680 C.3   182  ARG182      0.2205
    114  NE       -11.3800    6.7170   39.3810 N.pl3 182  ARG182     -0.0865
    115  CZ       -11.6560    7.2450   38.1910 C.cat 182  ARG182      0.5346
    116  NH1      -12.2290    6.5150   37.2380 N.pl3 182  ARG182      0.1354
    117  NH2      -11.3410    8.5140   37.9460 N.pl3 182  ARG182      0.1354
    118  N         -9.8360    5.8620   52.5520 N.3   203  HIS203     -0.1226
    119  CA        -9.7730    7.0000   53.4750 C.3   203  HIS203      0.1752
    120  C         -9.8620    8.3160   52.7260 C.2   203  HIS203      0.2597
    121  O         -9.0470    8.5930   51.8570 O.2   203  HIS203     -0.2718
    122  CB        -8.4870    6.9710   54.3070 C.3   203  HIS203      0.0759
    123  CG        -8.2360    5.6620   54.9850 C.ar  203  HIS203      0.0818
    124  ND1       -9.2080    4.9900   55.6910 N.ar  203  HIS203     -0.2268
    125  CD2       -7.1200    4.9000   55.0650 C.ar  203  HIS203      0.1154
    126  CE1       -8.7050    3.8660   56.1710 C.ar  203  HIS203      0.1986
    127  NE2       -7.4390    3.7880   55.8060 N.ar  203  HIS203     -0.2212
    128  N        -10.8520    9.1250   53.0760 N.am  204  THR204     -0.1939
    129  CA       -11.0230   10.4320   52.4620 C.3   204  THR204      0.2028
    130  C        -10.4080   11.4930   53.3680 C.2   204  THR204      0.2642
    131  O        -10.4060   11.3390   54.5840 O.2   204  THR204     -0.2714
    132  CB       -12.5200   10.7100   52.2220 C.3   204  THR204      0.1808
    133  OG1      -13.2190    9.4750   52.0070 O.3   204  THR204     -0.2208
    134  CG2      -12.7340   11.5000   50.9180 C.3   204  THR204      0.0379
    135  N         -9.8740   12.5600   52.7750 N.am  205  VAL205     -0.1977
    136  CA        -9.2950   13.6690   53.5540 C.3   205  VAL205      0.1596
    137  C        -10.4120   14.5650   54.1020 C.2   205  VAL205      0.2287
    138  O        -11.4460   14.7300   53.4560 O.2   205  VAL205     -0.2864
    139  CB        -8.2680   14.5050   52.7310 C.3   205  VAL205      0.0276
    140  CG1       -7.8120   15.7350   53.5100 C.3   205  VAL205      0.0022
    141  CG2       -7.0550   13.6530   52.3430 C.3   205  VAL205      0.0022
    142  N         -3.1950   15.0750   43.6250 N.3   238  ALA238     -0.1231
    143  CA        -2.9530   14.4540   42.3170 C.3   238  ALA238      0.1694
    144  C         -4.2580   13.9570   41.7090 C.2   238  ALA238      0.2592
    145  O         -4.3180   12.8600   41.1440 O.2   238  ALA238     -0.2718
    146  CB        -1.9700   13.3130   42.4570 C.3   238  ALA238      0.0304
    147  N         -5.2900   14.7940   41.8200 N.am  239  ILE239     -0.1966
    148  CA        -6.6510   14.4790   41.3770 C.3   239  ILE239      0.1727
    149  C         -6.8150   14.6400   39.8570 C.2   239  ILE239      0.2617
    150  O         -7.8160   14.2040   39.2860 O.2   239  ILE239     -0.2715
    151  CB        -7.6680   15.4050   42.1320 C.3   239  ILE239      0.0290
    152  CG1       -7.7650   15.0360   43.6090 C.3   239  ILE239      0.0022
    153  CG2       -9.0700   15.3330   41.5390 C.3   239  ILE239      0.0023
    154  CD1       -8.5960   16.0250   44.3960 C.3   239  ILE239      0.0001
    155  N         -5.8360   15.2540   39.1990 N.am  240  GLY240     -0.1940
    156  CA        -5.8990   15.4840   37.7580 C.3   240  GLY240      0.2014
    157  C         -6.0450   16.9590   37.4930 C.2   240  GLY240      0.2638
    158  O         -5.9250   17.7700   38.4060 O.2   240  GLY240     -0.2714
    159  N         -6.2940   17.3080   36.2380 N.am  241  HIS241     -0.1973
    160  CA        -6.4800   18.7010   35.8520 C.3   241  HIS241      0.1656
    161  C         -7.7090   18.8180   34.9890 C.2   241  HIS241      0.2291
    162  O         -8.1240   17.8490   34.3530 O.2   241  HIS241     -0.2864
    163  CB        -5.2640   19.2210   35.0890 C.3   241  HIS241      0.0771
    164  CG        -4.0260   19.3040   35.9200 C.ar  241  HIS241      0.0820
    165  ND1       -3.1820   18.2320   36.1030 N.ar  241  HIS241     -0.2267
    166  CD2       -3.4950   20.3270   36.6260 C.ar  241  HIS241      0.1154
    167  CE1       -2.1830   18.5910   36.8910 C.ar  241  HIS241      0.1986
    168  NE2       -2.3510   19.8560   37.2240 N.ar  241  HIS241     -0.2212
    169  N        -10.6390   13.8640   27.7540 N.3   257  ASP257     -0.1239
    170  CA       -10.5300   14.6520   28.9800 C.3   257  ASP257      0.1674
    171  C        -10.7090   16.1570   28.7680 C.2   257  ASP257      0.2266
    172  O        -10.7370   16.9230   29.7330 O.2   257  ASP257     -0.2867
    173  CB        -9.1740   14.3900   29.6390 C.3   257  ASP257      0.1410
    174  CG        -9.0040   12.9400   30.0550 C.2   257  ASP257      0.3668
    175  OD1       -9.8740   12.0960   29.6970 O.co2 257  ASP257     -0.2456
    176  OD2       -8.0290   12.5630   30.7420 O.co2 257  ASP257     -0.2456
    177  N         -8.8210   18.2060   26.5110 N.3   259  TYR259     -0.1241
    178  CA        -7.6600   18.9760   26.0510 C.3   259  TYR259      0.1605
    179  C         -7.7360   19.1640   24.5680 C.2   259  TYR259      0.2264
    180  O         -8.0170   18.2180   23.8450 O.2   259  TYR259     -0.2867
    181  CB        -6.3510   18.2740   26.3790 C.3   259  TYR259      0.0534
    182  CG        -6.1030   18.1770   27.8510 C.ar  259  TYR259     -0.0201
    183  CD1       -6.6030   17.1140   28.5910 C.ar  259  TYR259     -0.0009
    184  CD2       -5.3850   19.1640   28.5160 C.ar  259  TYR259     -0.0009
    185  CE1       -6.3830   17.0330   29.9500 C.ar  259  TYR259      0.0417
    186  CE2       -5.1590   19.0880   29.8800 C.ar  259  TYR259      0.0417
    187  CZ        -5.6600   18.0240   30.5840 C.ar  259  TYR259      0.1957
    188  OH        -5.4430   17.9520   31.9250 O.3   259  TYR259     -0.2866
    189  N         -0.7350   18.2000   28.3870 N.3   283  ARG283     -0.1231
    190  CA        -1.0880   17.4070   29.5480 C.3   283  ARG283      0.1694
    191  C          0.0710   16.5540   30.0760 C.2   283  ARG283      0.2592
    192  O         -0.1410   15.6500   30.8730 O.2   283  ARG283     -0.2718
    193  CB        -2.3010   16.5460   29.2260 C.3   283  ARG283      0.0321
    194  CG        -2.1110   15.6040   28.0550 C.3   283  ARG283      0.0489
    195  CD        -3.2870   14.7050   27.8490 C.3   283  ARG283      0.2205
    196  NE        -3.4710   13.7770   28.9600 N.pl3 283  ARG283     -0.0865
    197  CZ        -4.6190   13.1660   29.2500 C.cat 283  ARG283      0.5346
    198  NH1       -5.7160   13.3810   28.5220 N.pl3 283  ARG283      0.1354
    199  NH2       -4.6730   12.3300   30.2790 N.pl3 283  ARG283      0.1354
    200  N          1.2930   16.8700   29.6690 N.am  284  THR284     -0.1953
    201  CA         2.4480   16.0510   30.0050 C.3   284  THR284      0.1897
    202  C          3.4770   16.7700   30.8560 C.2   284  THR284      0.2313
    203  O          3.9710   16.2070   31.8210 O.2   284  THR284     -0.2863
    204  CB         3.1320   15.6220   28.7220 C.3   284  THR284      0.1794
    205  OG1        2.1680   15.0400   27.8400 O.3   284  THR284     -0.2208
    206  CG2        4.1660   14.5340   28.9890 C.3   284  THR284      0.0378
    207  N          3.5850   20.3720   32.7820 N.3   286  ARG286     -0.1245
    208  CA         2.8570   21.6190   32.9910 C.3   286  ARG286      0.1563
    209  C          3.7600   22.6510   33.5840 C.2   286  ARG286      0.2260
    210  O          3.5710   23.0250   34.7260 O.2   286  ARG286     -0.2867
    211  CB         1.6670   21.4100   33.9000 C.3   286  ARG286      0.0307
    212  CG         0.6570   20.4620   33.3250 C.3   286  ARG286      0.0489
    213  CD        -0.4310   20.0940   34.2970 C.3   286  ARG286      0.2205
    214  NE        -0.9580   18.7770   33.9910 N.pl3 286  ARG286     -0.0865
    215  CZ        -1.7880   18.5190   32.9920 C.cat 286  ARG286      0.5346
    216  NH1       -2.2120   19.4980   32.1700 N.pl3 286  ARG286      0.1354
    217  NH2       -2.1950   17.2680   32.8060 N.pl3 286  ARG286      0.1354
@<TRIPOS>BOND
     1   180   179    2
     2   179   178    1
     3   178   181    1
     4   178   177    1
     5   181   182    1
     6   169   170    1
     7   205   204    1
     8   195   194    1
     9   195   196    1
    10   182   184   ar
    11   182   183   ar
    12   194   193    1
    13   189   190    1
    14   184   186   ar
    15   198   197    1
    16   183   185   ar
    17   204   206    1
    18   204   201    1
    19   171   170    1
    20   171   172    2
    21   196   197    2
    22   170   173    1
    23   193   190    1
    24   197   199    1
    25   190   191    1
    26   173   174    1
    27   200   201    1
    28   200   191   am
    29   175   174   ar
    30   186   187   ar
    31   185   187   ar
    32   201   202    1
    33   174   176   ar
    34   191   192    2
    35   187   188    1
    36   202   203    2
    37   216   215    1
    38   207   208    1
    39   217   215    1
    40   208   209    1
    41   208   211    1
    42   215   214    2
    43   212   211    1
    44   212   213    1
    45   209   210    2
    46   214   213    1
    47    59    57   ar
    48   162   161    2
    49    74    72   ar
    50   161   160    1
    51   163   160    1
    52   163   164    1
    53    57    56    1
    54    57    58   ar
    55    72    73   ar
    56    72    71    1
    57    56    53    1
    58   160   159    1
    59   164   165   ar
    60   164   166   ar
    61   165   167   ar
    62   159   157   am
    63   166   168   ar
    64   167   168   ar
    65    71    70    1
    66   110   109    2
    67   116   115    1
    68    53    54    1
    69    53    52    1
    70   157   156    1
    71   157   158    2
    72    54    60   am
    73    54    55    2
    74    60    61    1
    75    70    67    1
    76   156   155    1
    77    10     9    1
    78    52    50   am
    79   117   115    1
    80    64    61    1
    81    64    65    1
    82    61    62    1
    83   115   114    2
    84   109   108    1
    85     7     6    1
    86     7     8    1
    87     9     8    2
    88     9    11    1
    89     6     5    1
    90    50    49    1
    91    50    51    2
    92   111   112    1
    93   111   108    1
    94    67    66    1
    95    67    68    1
    96   112   113    1
    97   108   107    1
    98   155   149   am
    99   150   149    2
   100   114   113    1
   101    49    48    1
   102    62    63    2
   103     1     2    1
   104   149   148    1
   105    68    69    2
   106     5     2    1
   107     2     3    1
   108    48    46   am
   109    47    46    2
   110   145   144    2
   111   148   147    1
   112   148   151    1
   113   153   151    1
   114    46    45    1
   115   144   147   am
   116   144   143    1
   117     3     4    2
   118     3    12   am
   119   151   152    1
   120   143   146    1
   121   143   142    1
   122   105   104    1
   123    12    13    1
   124   106   104    1
   125   104   103    2
   126    21    19   ar
   127    21    22   ar
   128    45    44    1
   129    19    17   ar
   130    44    42   am
   131    23    22    1
   132   152   154    1
   133    22    20   ar
   134   103   102    1
   135   102   101    1
   136    42    41    1
   137    42    43    2
   138    13    16    1
   139    13    14    1
   140    17    16    1
   141    17    18   ar
   142    41    40    1
   143    15    14    2
   144    20    18   ar
   145    84    83   ar
   146    84    82   ar
   147    95    93    1
   148    35    34    2
   149    83    81   ar
   150    14    24   am
   151   101   100    1
   152    82    80   ar
   153    40    34   am
   154    34    33    1
   155    81    80   ar
   156    93    94    1
   157    93    92    2
   158    80    79    1
   159    24    25    1
   160    92    91    1
   161   100    97    1
   162    32    33    1
   163    33    36    1
   164    25    26    1
   165    25    28    1
   166    79    76    1
   167    31    29    1
   168    91    90    1
   169    97    98    1
   170    97    96    1
   171    26    27    2
   172    36    38    1
   173    36    37    1
   174    98    99    2
   175    96    87   am
   176    29    28    1
   177    29    30    1
   178    89    90    1
   179    89    86    1
   180    85    86    1
   181    85    77   am
   182    76    77    1
   183    76    75    1
   184    87    86    1
   185    87    88    2
   186    77    78    2
   187    37    39    1
   188   134   132    1
   189   121   120    2
   190   133   132    1
   191   132   129    1
   192   141   139    1
   193   129   128    1
   194   129   130    1
   195   118   119    1
   196   120   128   am
   197   120   119    1
   198   139   140    1
   199   139   136    1
   200   135   130   am
   201   135   136    1
   202   130   131    2
   203   138   137    2
   204   119   122    1
   205   136   137    1
   206   122   123    1
   207   123   125   ar
   208   123   124   ar
   209   125   127   ar
   210   124   126   ar
   211   127   126   ar
