@<TRIPOS>MOLECULE
tmp/2a8eA00.pdb
 92 92 0 0 0
SMALL
GASTEIGER

@<TRIPOS>ATOM
      1  N         40.3730   54.0080   31.7220 N.3    52  HIS52      -0.1226
      2  CA        39.4360   53.1010   32.3780 C.3    52  HIS52       0.1752
      3  C         38.4290   52.5630   31.3590 C.2    52  HIS52       0.2596
      4  O         37.4950   53.2590   30.9600 O.2    52  HIS52      -0.2718
      5  CB        38.7190   53.8330   33.5160 C.3    52  HIS52       0.0759
      6  CG        39.6280   54.2140   34.6420 C.ar   52  HIS52       0.0818
      7  ND1       40.1570   53.2880   35.5210 N.ar   52  HIS52      -0.2268
      8  CD2       40.1610   55.4100   34.9940 C.ar   52  HIS52       0.1154
      9  CE1       40.9740   53.8960   36.3610 C.ar   52  HIS52       0.1986
     10  NE2       40.9940   55.1840   36.0630 N.ar   52  HIS52      -0.2212
     11  N         38.6380   51.3250   30.9280 N.am   53  VAL53      -0.1966
     12  CA        37.7450   50.6970   29.9620 C.3    53  VAL53       0.1727
     13  C         36.4430   50.3640   30.6740 C.2    53  VAL53       0.2616
     14  O         36.4560   49.7660   31.7440 O.2    53  VAL53      -0.2715
     15  CB        38.3840   49.4170   29.3780 C.3    53  VAL53       0.0290
     16  CG1       37.4190   48.7100   28.4470 C.3    53  VAL53       0.0023
     17  CG2       39.6550   49.7880   28.6270 C.3    53  VAL53       0.0023
     18  N         35.3250   50.7700   30.0820 N.am   54  ALA54      -0.1963
     19  CA        34.0020   50.5350   30.6650 C.3    54  ALA54       0.1728
     20  C         33.6820   49.0710   30.9500 C.2    54  ALA54       0.2616
     21  O         33.9880   48.1780   30.1550 O.2    54  ALA54      -0.2715
     22  CB        32.9230   51.1240   29.7610 C.3    54  ALA54       0.0334
     23  N         33.0590   48.8400   32.1010 N.am   55  LYS55      -0.1977
     24  CA        32.6590   47.5010   32.5170 C.3    55  LYS55       0.1596
     25  C         31.1580   47.3630   32.2840 C.2    55  LYS55       0.2287
     26  O         30.4130   48.3400   32.3690 O.2    55  LYS55      -0.2864
     27  CB        32.9840   47.2750   33.9970 C.3    55  LYS55       0.0298
     28  CG        34.4710   47.2790   34.3250 C.3    55  LYS55       0.0038
     29  CD        34.7100   47.0170   35.8150 C.3    55  LYS55       0.0206
     30  CE        36.2020   46.8670   36.1360 C.3    55  LYS55       0.1093
     31  NZ        36.9950   48.1170   35.9120 N.3    55  LYS55      -0.1314
     32  N         28.4750   45.1930   36.1860 N.3    59  ARG59      -0.1245
     33  CA        27.7370   46.3480   36.6770 C.3    59  ARG59       0.1563
     34  C         26.2460   46.2810   36.4070 C.2    59  ARG59       0.2260
     35  O         25.4460   46.7910   37.1920 O.2    59  ARG59      -0.2867
     36  CB        28.3110   47.6190   36.0490 C.3    59  ARG59       0.0307
     37  CG        29.7790   47.8530   36.3670 C.3    59  ARG59       0.0489
     38  CD        29.9780   48.2720   37.8180 C.3    59  ARG59       0.2205
     39  NE        31.3910   48.4690   38.1350 N.pl3  59  ARG59      -0.0865
     40  CZ        32.1470   47.5780   38.7670 C.cat  59  ARG59       0.5346
     41  NH1       31.6260   46.4250   39.1600 N.pl3  59  ARG59       0.1354
     42  NH2       33.4270   47.8360   38.9950 N.pl3  59  ARG59       0.1354
     43  N         32.9160   52.3000   26.0940 N.3    68  TRP68      -0.1241
     44  CA        33.8780   53.3840   26.0110 C.3    68  TRP68       0.1605
     45  C         35.0580   53.2030   26.9500 C.2    68  TRP68       0.2264
     46  O         35.0590   52.3380   27.8350 O.2    68  TRP68      -0.2867
     47  CB        33.1800   54.6820   26.3930 C.3    68  TRP68       0.0550
     48  CG        32.7510   54.6570   27.8380 C.ar   68  TRP68       0.0003
     49  CD1       33.5210   54.9590   28.9330 C.ar   68  TRP68       0.0946
     50  CD2       31.4800   54.2290   28.3490 C.ar   68  TRP68       0.0152
     51  NE1       32.8080   54.7420   30.0860 N.ar   68  TRP68      -0.2442
     52  CE2       31.5550   54.2950   29.7620 C.ar   68  TRP68       0.0810
     53  CE3       30.2860   53.7920   27.7500 C.ar   68  TRP68       0.0012
     54  CZ2       30.4750   53.9470   30.5870 C.ar   68  TRP68       0.0191
     55  CZ3       29.2100   53.4450   28.5760 C.ar   68  TRP68       0.0001
     56  CH2       29.3180   53.5260   29.9790 C.ar   68  TRP68       0.0015
     57  N         42.1000   54.4520   40.2630 N.3    76  ARG76      -0.1231
     58  CA        41.0440   53.5040   40.6200 C.3    76  ARG76       0.1698
     59  C         39.6930   53.7080   39.9450 C.2    76  ARG76       0.2632
     60  O         38.9380   52.7530   39.7830 O.2    76  ARG76      -0.2714
     61  CB        40.8400   53.4710   42.1420 C.3    76  ARG76       0.0321
     62  CG        41.0930   54.7950   42.8410 C.3    76  ARG76       0.0489
     63  CD        40.5780   54.7970   44.2800 C.3    76  ARG76       0.2205
     64  NE        41.0470   53.6600   45.0750 N.pl3  76  ARG76      -0.0865
     65  CZ        42.3180   53.4230   45.3910 C.cat  76  ARG76       0.5346
     66  NH1       43.2790   54.2430   44.9790 N.pl3  76  ARG76       0.1354
     67  NH2       42.6270   52.3660   46.1340 N.pl3  76  ARG76       0.1354
     68  N         39.3800   54.9380   39.5530 N.am   77  GLY77      -0.1718
     69  CA        38.0950   55.1850   38.9190 C.2    77  GLY77       0.1480
     70  C         37.9810   56.5050   38.1850 C.2    77  GLY77       0.2820
     71  O         38.9300   57.2860   38.1450 O.2    77  GLY77      -0.2669
     72  N         36.8090   56.7600   37.6100 N.am   78  TYR78      -0.1925
     73  CA        36.5920   57.9900   36.8670 C.3    78  TYR78       0.1774
     74  C         35.2250   58.6430   37.0630 C.2    78  TYR78       0.2619
     75  O         35.0970   59.8530   36.9100 O.2    78  TYR78      -0.2715
     76  CB        36.7780   57.7340   35.3770 C.3    78  TYR78       0.0574
     77  CG        35.7000   56.8600   34.7820 C.ar   78  TYR78      -0.0198
     78  CD1       35.7480   55.4720   34.9130 C.ar   78  TYR78      -0.0009
     79  CD2       34.6270   57.4230   34.0850 C.ar   78  TYR78      -0.0009
     80  CE1       34.7620   54.6650   34.3630 C.ar   78  TYR78       0.0417
     81  CE2       33.6310   56.6230   33.5290 C.ar   78  TYR78       0.0417
     82  CZ        33.7060   55.2490   33.6680 C.ar   78  TYR78       0.1957
     83  OH        32.7300   54.4570   33.1130 O.3    78  TYR78      -0.2866
     84  N         34.2080   57.8540   37.3950 N.am   79  LYS79      -0.1977
     85  CA        32.8490   58.3810   37.5460 C.3    79  LYS79       0.1596
     86  C         32.6520   59.5800   38.4670 C.2    79  LYS79       0.2287
     87  O         31.7900   60.4200   38.2130 O.2    79  LYS79      -0.2864
     88  CB        31.8920   57.2680   37.9960 C.3    79  LYS79       0.0298
     89  CG        31.8190   56.0680   37.0630 C.3    79  LYS79       0.0038
     90  CD        30.9070   54.9900   37.6350 C.3    79  LYS79       0.0206
     91  CE        31.0770   53.6620   36.9090 C.3    79  LYS79       0.1093
     92  NZ        30.8000   53.7830   35.4540 N.3    79  LYS79      -0.1314
@<TRIPOS>BOND
     1    44    43    1
     2    44    47    1
     3    44    45    1
     4    47    48    1
     5    45    46    2
     6    53    50   ar
     7    53    55   ar
     8    48    50   ar
     9    48    49   ar
    10    50    52   ar
    11    16    15    1
    12    55    56   ar
    13    17    15    1
    14    49    51   ar
    15    15    12    1
    16    22    19    1
    17    52    51   ar
    18    52    54   ar
    19    12    13    1
    20    12    11    1
    21    56    54   ar
    22    18    19    1
    23    18    13   am
    24    21    20    2
    25    19    20    1
    26    13    14    2
    27    11     3   am
    28    20    23   am
    29     4     3    2
    30     3     2    1
    31     1     2    1
    32    23    24    1
    33    25    26    2
    34    25    24    1
    35     2     5    1
    36    24    27    1
    37    83    82    1
    38     5     6    1
    39    81    82   ar
    40    81    79   ar
    41    82    80   ar
    42    27    28    1
    43    79    77   ar
    44    28    29    1
    45    80    78   ar
    46     6     8   ar
    47     6     7   ar
    48    77    78   ar
    49    77    76    1
    50     8    10   ar
    51    76    73    1
    52    92    91    1
    53     7     9   ar
    54    29    30    1
    55    31    30    1
    56    36    37    1
    57    36    33    1
    58    10     9   ar
    59    32    33    1
    60    37    38    1
    61    34    33    1
    62    34    35    2
    63    73    74    1
    64    73    72    1
    65    91    90    1
    66    75    74    2
    67    89    90    1
    68    89    88    1
    69    74    84   am
    70    84    85    1
    71    85    88    1
    72    85    86    1
    73    72    70   am
    74    38    39    1
    75    39    40    2
    76    71    70    2
    77    70    69    1
    78    87    86    2
    79    40    42    1
    80    40    41    1
    81    69    68    2
    82    68    59    1
    83    60    59    2
    84    59    58    1
    85    57    58    1
    86    58    61    1
    87    61    62    1
    88    62    63    1
    89    63    64    1
    90    66    65    1
    91    64    65    2
    92    65    67    1
