@<TRIPOS>MOLECULE
tmp/2a8gB01.pdb
 135 128 0 0 0
SMALL
GASTEIGER

@<TRIPOS>ATOM
      1  N         19.2770   -6.2620    9.7210 N.3    10  ASN10      -0.1240
      2  CA        17.9920   -6.7920   10.1620 C.3    10  ASN10       0.1653
      3  C         17.5540   -8.0750    9.5130 C.2    10  ASN10       0.2266
      4  O         18.2920   -8.6870    8.7320 O.2    10  ASN10      -0.2867
      5  CB        16.8410   -5.7530   10.1580 C.3    10  ASN10       0.1155
      6  CG        16.4380   -5.2660    8.7690 C.2    10  ASN10       0.2627
      7  OD1       16.5340   -5.9760    7.7670 O.2    10  ASN10      -0.2716
      8  ND2       15.9360   -4.0220    8.7280 N.am   10  ASN10      -0.0877
      9  N         15.1410   -8.6490    7.3370 N.3    12  LEU12      -0.1245
     10  CA        14.9460   -8.5870    5.8900 C.3    12  LEU12       0.1561
     11  C         16.2500   -8.3590    5.0760 C.2    12  LEU12       0.2260
     12  O         16.1920   -8.2320    3.8560 O.2    12  LEU12      -0.2867
     13  CB        13.9140   -7.5090    5.5440 C.3    12  LEU12       0.0270
     14  CG        12.5440   -7.5040    6.2360 C.3    12  LEU12       0.0019
     15  CD1       11.7920   -6.1920    5.9780 C.3    12  LEU12       0.0001
     16  CD2       11.7070   -8.7270    5.8430 C.3    12  LEU12       0.0001
     17  N         18.3660   -5.5500    5.3530 N.3    14  SER14      -0.1217
     18  CA        18.8680   -4.1660    5.2740 C.3    14  SER14       0.1889
     19  C         19.9500   -3.9500    6.3130 C.2    14  SER14       0.2288
     20  O         19.9500   -4.6310    7.3390 O.2    14  SER14      -0.2866
     21  CB        17.7550   -3.1710    5.4780 C.3    14  SER14       0.2089
     22  OG        16.6330   -3.5960    4.7610 O.3    14  SER14      -0.2183
     23  N         20.9460    4.2540    6.2850 N.3    31  TYR31      -0.1241
     24  CA        20.1580    3.0640    6.1810 C.3    31  TYR31       0.1605
     25  C         20.2920    2.5630    4.7440 C.2    31  TYR31       0.2264
     26  O         19.9980    3.3170    3.8070 O.2    31  TYR31      -0.2867
     27  CB        18.6850    3.3900    6.4840 C.3    31  TYR31       0.0534
     28  CG        17.8500    2.2050    6.8740 C.ar   31  TYR31      -0.0201
     29  CD1       17.2550    1.3830    5.9200 C.ar   31  TYR31      -0.0009
     30  CD2       17.5920    1.9470    8.2350 C.ar   31  TYR31      -0.0009
     31  CE1       16.4780    0.2650    6.3060 C.ar   31  TYR31       0.0417
     32  CE2       16.8370    0.8710    8.6160 C.ar   31  TYR31       0.0417
     33  CZ        16.2860    0.0370    7.6740 C.ar   31  TYR31       0.1957
     34  OH        15.5290   -1.0030    8.1480 O.3    31  TYR31      -0.2866
     35  N         19.2990   -0.5240    1.8280 N.3    33  THR33      -0.1218
     36  CA        18.5500   -1.6910    1.2340 C.3    33  THR33       0.1862
     37  C         19.0450   -1.7600   -0.2580 C.2    33  THR33       0.2287
     38  O         19.3200   -0.6870   -0.7690 O.2    33  THR33      -0.2866
     39  CB        17.0330   -1.4320    1.3830 C.3    33  THR33       0.1770
     40  OG1       16.7940   -0.5280    2.4850 O.3    33  THR33      -0.2211
     41  CG2       16.2780   -2.7540    1.6230 C.3    33  THR33       0.0375
     42  N         20.5900    1.2390   -2.2320 N.3    43  LYS43      -0.1245
     43  CA        20.3510    2.6800   -1.9950 C.3    43  LYS43       0.1561
     44  C         20.6920    3.0120   -0.5570 C.2    43  LYS43       0.2260
     45  O         20.4550    2.2000    0.3370 O.2    43  LYS43      -0.2867
     46  CB        18.9130    3.0900   -2.3020 C.3    43  LYS43       0.0271
     47  CG        18.6020    3.1590   -3.7860 C.3    43  LYS43       0.0035
     48  CD        18.1000    1.8300   -4.3780 C.3    43  LYS43       0.0206
     49  CE        16.6650    1.4600   -3.9260 C.3    43  LYS43       0.1093
     50  NZ        16.6200    0.5140   -2.7410 N.3    43  LYS43      -0.1314
     51  N         13.8280    8.7590    2.9590 N.3    68  TRP68      -0.1241
     52  CA        14.1540    7.9470    1.7720 C.3    68  TRP68       0.1605
     53  C         14.6420    8.8210    0.5950 C.2    68  TRP68       0.2264
     54  O         14.0380    9.8460    0.2590 O.2    68  TRP68      -0.2867
     55  CB        12.9920    7.0040    1.3530 C.3    68  TRP68       0.0550
     56  CG        12.5910    5.9790    2.4610 C.ar   68  TRP68       0.0003
     57  CD1       11.3830    5.9060    3.1280 C.ar   68  TRP68       0.0946
     58  CD2       13.4060    4.9200    2.9980 C.ar   68  TRP68       0.0152
     59  NE1       11.4270    4.9020    4.0680 N.ar   68  TRP68      -0.2442
     60  CE2       12.6470    4.2780    4.0070 C.ar   68  TRP68       0.0810
     61  CE3       14.7090    4.4760    2.7480 C.ar   68  TRP68       0.0012
     62  CZ2       13.1340    3.1850    4.7250 C.ar   68  TRP68       0.0191
     63  CZ3       15.2080    3.3950    3.4620 C.ar   68  TRP68       0.0001
     64  CH2       14.4230    2.7740    4.4710 C.ar   68  TRP68       0.0015
     65  N         15.1240    7.8280   -2.5700 N.3    70  PHE70      -0.1227
     66  CA        14.6620    7.3070   -3.8430 C.3    70  PHE70       0.1736
     67  C         13.1460    7.3140   -3.9580 C.2    70  PHE70       0.2596
     68  O         12.5940    6.7870   -4.9440 O.2    70  PHE70      -0.2718
     69  CB        15.2430    5.8930   -4.0610 C.3    70  PHE70       0.0547
     70  CG        14.9650    4.9290   -2.9220 C.ar   70  PHE70      -0.0202
     71  CD1       13.8360    4.0890   -2.9570 C.ar   70  PHE70      -0.0042
     72  CD2       15.8370    4.8570   -1.8190 C.ar   70  PHE70      -0.0042
     73  CE1       13.5740    3.2040   -1.9170 C.ar   70  PHE70      -0.0003
     74  CE2       15.5880    3.9620   -0.7760 C.ar   70  PHE70      -0.0003
     75  CZ        14.4570    3.1420   -0.8170 C.ar   70  PHE70      -0.0000
     76  N         12.4750    7.9150   -2.9580 N.am   71  SER71      -0.1952
     77  CA        11.0110    8.0660   -2.9670 C.3    71  SER71       0.1924
     78  C         10.4930    9.2970   -2.2040 C.2    71  SER71       0.2314
     79  O         11.2670   10.0190   -1.5660 O.2    71  SER71      -0.2863
     80  CB        10.3250    6.7790   -2.4860 C.3    71  SER71       0.2116
     81  OG        10.3250    6.6730   -1.0830 O.3    71  SER71      -0.2180
     82  N          8.4590    9.0350    0.2510 N.3    73  SER73      -0.1217
     83  CA         8.0600    8.3880    1.5100 C.3    73  SER73       0.1889
     84  C          8.9740    8.6960    2.6730 C.2    73  SER73       0.2288
     85  O         10.1260    9.0970    2.4960 O.2    73  SER73      -0.2866
     86  CB         8.0460    6.8690    1.2870 C.3    73  SER73       0.2089
     87  OG         6.9520    6.5040    0.4870 O.3    73  SER73      -0.2183
     88  N          9.9310    6.8240    6.5920 N.3    75  THR75      -0.1218
     89  CA         9.6870    5.8260    7.6480 C.3    75  THR75       0.1862
     90  C         10.1890    6.3240    8.9960 C.2    75  THR75       0.2287
     91  O         11.2910    6.9110    9.0830 O.2    75  THR75      -0.2866
     92  CB        10.3580    4.4160    7.2990 C.3    75  THR75       0.1770
     93  OG1        9.8810    3.9680    6.0250 O.3    75  THR75      -0.2211
     94  CG2       10.0000    3.3070    8.3120 C.3    75  THR75       0.0375
     95  N         11.0430    4.7400   12.9420 N.3    77  PHE77      -0.1241
     96  CA        11.2960    3.4910   13.6770 C.3    77  PHE77       0.1605
     97  C         11.3760    3.8750   15.1640 C.2    77  PHE77       0.2264
     98  O         12.0410    4.8420   15.5010 O.2    77  PHE77      -0.2867
     99  CB        12.6580    2.9460   13.3510 C.3    77  PHE77       0.0534
    100  CG        12.7930    2.3330   11.9820 C.ar   77  PHE77      -0.0203
    101  CD1       12.8910    3.1440   10.8530 C.ar   77  PHE77      -0.0042
    102  CD2       12.8470    0.9470   11.8420 C.ar   77  PHE77      -0.0042
    103  CE1       13.0600    2.5810    9.5990 C.ar   77  PHE77      -0.0003
    104  CE2       13.0130    0.3630   10.6030 C.ar   77  PHE77      -0.0003
    105  CZ        13.1010    1.1900    9.4670 C.ar   77  PHE77      -0.0000
    106  N          7.9650    0.1040   13.1020 N.3    95  TRP95      -0.1241
    107  CA         8.0730    1.2210   12.1770 C.3    95  TRP95       0.1605
    108  C          6.7250    1.5680   11.5750 C.2    95  TRP95       0.2264
    109  O          5.8430    0.7110   11.5040 O.2    95  TRP95      -0.2867
    110  CB         9.0750    0.8870   11.0470 C.3    95  TRP95       0.0550
    111  CG         8.8590   -0.3980   10.3060 C.ar   95  TRP95       0.0003
    112  CD1        9.5480   -1.5790   10.5070 C.ar   95  TRP95       0.0946
    113  CD2        7.9220   -0.6620    9.2420 C.ar   95  TRP95       0.0152
    114  NE1        9.1190   -2.5210    9.6120 N.ar   95  TRP95      -0.2442
    115  CE2        8.1120   -1.9950    8.8430 C.ar   95  TRP95       0.0810
    116  CE3        6.9510    0.1080    8.5780 C.ar   95  TRP95       0.0012
    117  CZ2        7.3850   -2.5820    7.7840 C.ar   95  TRP95       0.0191
    118  CZ3        6.2220   -0.4880    7.5230 C.ar   95  TRP95       0.0001
    119  CH2        6.4440   -1.8080    7.1570 C.ar   95  TRP95       0.0015
    120  N          5.5590    3.3730    7.9030 N.3    97  LEU97      -0.1245
    121  CA         5.9760    3.8280    6.5480 C.3    97  LEU97       0.1561
    122  C          4.8580    4.7030    5.9520 C.2    97  LEU97       0.2260
    123  O          3.7470    4.2360    5.7070 O.2    97  LEU97      -0.2867
    124  CB         6.2500    2.6090    5.6530 C.3    97  LEU97       0.0270
    125  CG         6.3290    2.8720    4.1200 C.3    97  LEU97       0.0019
    126  CD1        7.3930    3.8860    3.7350 C.3    97  LEU97       0.0001
    127  CD2        6.6490    1.5770    3.4610 C.3    97  LEU97       0.0001
    128  N         10.9790   -4.6070   12.7910 N.3   116  ASN116     -0.1240
    129  CA        12.2940   -5.0520   12.3950 C.3   116  ASN116      0.1653
    130  C         13.1100   -5.3730   13.6090 C.2   116  ASN116      0.2266
    131  O         13.0300   -4.6730   14.5870 O.2   116  ASN116     -0.2867
    132  CB        13.0110   -3.9890   11.6150 C.3   116  ASN116      0.1155
    133  CG        12.7890   -4.1020   10.1170 C.2   116  ASN116      0.2627
    134  OD1       12.6260   -3.0920    9.4430 O.2   116  ASN116     -0.2716
    135  ND2       12.8250   -5.3090    9.5930 N.am  116  ASN116     -0.0877
@<TRIPOS>BOND
     1    68    67    2
     2    48    49    1
     3    48    47    1
     4    69    66    1
     5    69    70    1
     6    67    66    1
     7    67    76   am
     8    49    50    1
     9    66    65    1
    10    47    46    1
    11    77    76    1
    12    77    80    1
    13    77    78    1
    14    71    70   ar
    15    71    73   ar
    16    70    72   ar
    17    80    81    1
    18    46    43    1
    19    42    43    1
    20    78    79    2
    21    43    44    1
    22    73    75   ar
    23    72    74   ar
    24    75    74   ar
    25    38    37    2
    26    44    45    2
    27    37    36    1
    28    82    83    1
    29    54    53    2
    30    87    86    1
    31    53    52    1
    32    36    39    1
    33    36    35    1
    34    86    83    1
    35    55    52    1
    36    55    56    1
    37    39    41    1
    38    39    40    1
    39    83    84    1
    40    52    51    1
    41    56    58   ar
    42    56    57   ar
    43    85    84    2
    44    61    58   ar
    45    61    63   ar
    46    58    60   ar
    47    57    59   ar
    48   127   125    1
    49    63    64   ar
    50   126   125    1
    51    26    25    2
    52    12    11    2
    53    60    59   ar
    54    60    62   ar
    55   125   124    1
    56    64    62   ar
    57    25    24    1
    58    22    21    1
    59    11    10    1
    60    18    17    1
    61    18    21    1
    62    18    19    1
    63    13    10    1
    64    13    14    1
    65   124   121    1
    66   123   122    2
    67    16    14    1
    68    10     9    1
    69    29    31   ar
    70    29    28   ar
    71   122   121    1
    72    15    14    1
    73    93    92    1
    74    24    23    1
    75    24    27    1
    76    31    33   ar
    77    19    20    2
    78    27    28    1
    79   121   120    1
    80    88    89    1
    81    28    30   ar
    82   119   118   ar
    83   119   117   ar
    84    92    89    1
    85    92    94    1
    86   118   116   ar
    87    89    90    1
    88    33    34    1
    89    33    32   ar
    90     7     6    2
    91   117   115   ar
    92    30    32   ar
    93   116   113   ar
    94     8     6   am
    95     4     3    2
    96     6     5    1
    97   115   113   ar
    98   115   114   ar
    99    90    91    2
   100   113   111   ar
   101   134   133    2
   102   105   103   ar
   103   105   104   ar
   104     3     2    1
   105   135   133   am
   106   103   101   ar
   107   114   112   ar
   108     1     2    1
   109   133   132    1
   110     5     2    1
   111   111   112   ar
   112   111   110    1
   113   104   102   ar
   114   101   100   ar
   115   110   107    1
   116   109   108    2
   117   108   107    1
   118   132   129    1
   119   102   100   ar
   120   100    99    1
   121   107   106    1
   122   129   128    1
   123   129   130    1
   124    95    96    1
   125    99    96    1
   126   130   131    2
   127    96    97    1
   128    97    98    2
