@<TRIPOS>MOLECULE
tmp/2a8hB00.pdb
 158 153 0 0 0
SMALL
GASTEIGER

@<TRIPOS>ATOM
      1  N         26.1920   54.8050  143.6020 N.3    97  VAL97      -0.1245
      2  CA        24.7370   54.6880  143.3560 C.3    97  VAL97       0.1561
      3  C         24.0250   53.8290  144.4050 C.2    97  VAL97       0.2260
      4  O         23.0020   54.2390  144.9530 O.2    97  VAL97      -0.2867
      5  CB        24.3850   54.2530  141.8730 C.3    97  VAL97       0.0252
      6  CG1       24.6960   52.7690  141.6010 C.3    97  VAL97       0.0019
      7  CG2       22.9260   54.5760  141.5500 C.3    97  VAL97       0.0019
      8  N         30.6680   55.1220  135.0840 N.3   128  MET128     -0.1230
      9  CA        30.4520   54.0940  134.0630 C.3   128  MET128      0.1702
     10  C         29.0980   54.2270  133.3660 C.2   128  MET128      0.2593
     11  O         28.5340   53.2420  132.8810 O.2   128  MET128     -0.2718
     12  CB        30.6640   52.6870  134.6440 C.3   128  MET128      0.0401
     13  CG        32.0600   52.4910  135.2390 C.3   128  MET128      0.0596
     14  SD        32.2930   50.8530  135.9450 S.3   128  MET128     -0.1393
     15  CE        32.3800   49.8670  134.4370 C.3   128  MET128      0.0692
     16  N         28.5890   55.4550  133.3190 N.am  129  GLY129     -0.1942
     17  CA        27.3650   55.7600  132.5760 C.3   129  GLY129      0.2014
     18  C         26.0980   55.3120  133.2730 C.2   129  GLY129      0.2640
     19  O         25.0610   55.1280  132.6370 O.2   129  GLY129     -0.2714
     20  N         26.1930   55.1380  134.5870 N.am  130  THR130     -0.1936
     21  CA        25.0570   54.7660  135.4250 C.3   130  THR130      0.2028
     22  C         24.1010   55.9470  135.5400 C.2   130  THR130      0.2642
     23  O         24.5320   57.0850  135.7290 O.2   130  THR130     -0.2714
     24  CB        25.5420   54.3520  136.8250 C.3   130  THR130      0.1808
     25  OG1       26.5510   53.3510  136.6750 O.3   130  THR130     -0.2208
     26  CG2       24.4050   53.7910  137.6770 C.3   130  THR130      0.0379
     27  N         22.8100   55.6610  135.4260 N.am  131  LEU131     -0.1963
     28  CA        21.7790   56.7020  135.4380 C.3   131  LEU131      0.1731
     29  C         20.7430   56.5190  136.5530 C.2   131  LEU131      0.2656
     30  O         20.1040   57.4810  136.9670 O.2   131  LEU131     -0.2711
     31  CB        21.0800   56.7570  134.0820 C.3   131  LEU131      0.0311
     32  CG        21.8680   57.3290  132.9050 C.3   131  LEU131      0.0022
     33  CD1       21.4550   56.6710  131.6170 C.3   131  LEU131      0.0001
     34  CD2       21.7230   58.8500  132.8310 C.3   131  LEU131      0.0001
     35  N         20.5810   55.2900  137.0370 N.am  132  GLY132     -0.1716
     36  CA        19.6380   55.0360  138.1260 C.2   132  GLY132      0.1480
     37  C         19.7300   53.6660  138.7730 C.2   132  GLY132      0.2820
     38  O         20.5020   52.7920  138.3470 O.2   132  GLY132     -0.2669
     39  N         18.9100   53.4790  139.7950 N.am  133  LEU133     -0.1929
     40  CA        18.8980   52.2530  140.5680 C.3   133  LEU133      0.1731
     41  C         17.5830   52.1500  141.3180 C.2   133  LEU133      0.2616
     42  O         17.0670   53.1440  141.8250 O.2   133  LEU133     -0.2715
     43  CB        20.0610   52.2350  141.5640 C.3   133  LEU133      0.0311
     44  CG        20.3540   50.8870  142.2330 C.3   133  LEU133      0.0022
     45  CD1       21.0230   49.9330  141.2410 C.3   133  LEU133      0.0001
     46  CD2       21.2180   51.0830  143.5080 C.3   133  LEU133      0.0001
     47  N         17.0480   50.9420  141.3890 N.am  134  ALA134     -0.1977
     48  CA        15.7820   50.7230  142.0560 C.3   134  ALA134      0.1597
     49  C         15.7400   49.3110  142.6030 C.2   134  ALA134      0.2287
     50  O         16.4080   48.4280  142.0850 O.2   134  ALA134     -0.2864
     51  CB        14.6200   50.9640  141.0950 C.3   134  ALA134      0.0319
     52  N         15.5000   60.5880  127.0560 N.3   181  GLU181     -0.1245
     53  CA        16.3530   59.6880  127.8350 C.3   181  GLU181      0.1567
     54  C         15.9230   59.6300  129.2860 C.2   181  GLU181      0.2260
     55  O         15.7960   58.5580  129.8420 O.2   181  GLU181     -0.2867
     56  CB        17.8130   60.1200  127.7510 C.3   181  GLU181      0.0388
     57  CG        18.4520   59.8300  126.3990 C.3   181  GLU181      0.1160
     58  CD        19.9190   60.2720  126.3130 C.2   181  GLU181      0.3649
     59  OE1       20.2890   61.3600  126.8250 O.co2 181  GLU181     -0.2457
     60  OE2       20.7050   59.5070  125.7180 O.co2 181  GLU181     -0.2457
     61  N         13.0260   57.4780  129.8730 N.3   184  LEU184     -0.1231
     62  CA        13.3970   56.0720  129.7880 C.3   184  LEU184      0.1693
     63  C         14.0010   55.5840  131.1090 C.2   184  LEU184      0.2591
     64  O         13.6430   54.5030  131.5860 O.2   184  LEU184     -0.2718
     65  CB        14.3230   55.7920  128.5790 C.3   184  LEU184      0.0284
     66  CG        13.6760   55.8990  127.1700 C.3   184  LEU184      0.0019
     67  CD1       14.6970   55.9830  126.0770 C.3   184  LEU184      0.0001
     68  CD2       12.7890   54.7520  126.8550 C.3   184  LEU184      0.0001
     69  N         14.8770   56.3910  131.7100 N.am  185  VAL185     -0.1980
     70  CA        15.5660   55.9990  132.9540 C.3   185  VAL185      0.1595
     71  C         14.5430   55.7520  134.0610 C.2   185  VAL185      0.2287
     72  O         14.5630   54.7070  134.7380 O.2   185  VAL185     -0.2864
     73  CB        16.6130   57.0610  133.4330 C.3   185  VAL185      0.0276
     74  CG1       17.2200   56.6420  134.7730 C.3   185  VAL185      0.0022
     75  CG2       17.7160   57.2620  132.3930 C.3   185  VAL185      0.0022
     76  N         12.3840   52.5920  133.3600 N.3   188  HIS188     -0.1226
     77  CA        13.2370   51.4790  133.6860 C.3   188  HIS188      0.1752
     78  C         13.3170   51.2390  135.2040 C.2   188  HIS188      0.2595
     79  O         13.0890   50.1280  135.6690 O.2   188  HIS188     -0.2718
     80  CB        14.6010   51.8340  133.1280 C.3   188  HIS188      0.0759
     81  CG        15.6300   50.7610  133.2590 C.ar  188  HIS188      0.0818
     82  ND1       16.0790   50.0330  132.1800 N.ar  188  HIS188     -0.2268
     83  CD2       16.3510   50.3410  134.3200 C.ar  188  HIS188      0.1154
     84  CE1       17.0150   49.1950  132.5730 C.ar  188  HIS188      0.1986
     85  NE2       17.2040   49.3680  133.8650 N.ar  188  HIS188     -0.2212
     86  N         13.6500   52.2870  135.9620 N.am  189  GLU189     -0.1979
     87  CA        13.8190   52.1720  137.4010 C.3   189  GLU189      0.1602
     88  C         12.5130   51.7960  138.0900 C.2   189  GLU189      0.2287
     89  O         12.4820   50.8530  138.8890 O.2   189  GLU189     -0.2864
     90  CB        14.4200   53.4480  138.0060 C.3   189  GLU189      0.0415
     91  CG        15.8330   53.7810  137.5360 C.3   189  GLU189      0.1163
     92  CD        16.7760   52.5880  137.5510 C.2   189  GLU189      0.3649
     93  OE1       16.5390   51.6270  138.3150 O.co2 189  GLU189     -0.2457
     94  OE2       17.7580   52.6050  136.7850 O.co2 189  GLU189     -0.2457
     95  N         11.9930   48.2060  137.4560 N.3   192  HIS192     -0.1241
     96  CA        12.5420   47.3080  138.5010 C.3   192  HIS192      0.1621
     97  C         11.5730   47.2280  139.6860 C.2   192  HIS192      0.2264
     98  O         11.1840   46.1320  140.0960 O.2   192  HIS192     -0.2867
     99  CB        13.9310   47.7550  139.0020 C.3   192  HIS192      0.0745
    100  CG        15.0540   47.5300  138.0310 C.ar  192  HIS192      0.0817
    101  ND1       15.2720   46.3250  137.4000 N.ar  192  HIS192     -0.2268
    102  CD2       16.0620   48.3470  137.6310 C.ar  192  HIS192      0.1154
    103  CE1       16.3460   46.4180  136.6280 C.ar  192  HIS192      0.1986
    104  NE2       16.8410   47.6380  136.7450 N.ar  192  HIS192     -0.2212
    105  N         16.2780   42.7500  134.2980 N.3   198  HIS198     -0.1241
    106  CA        16.7970   43.0840  132.9890 C.3   198  HIS198      0.1621
    107  C         16.4060   42.0580  131.9380 C.2   198  HIS198      0.2264
    108  O         16.3120   40.8610  132.2330 O.2   198  HIS198     -0.2867
    109  CB        18.3090   43.2740  133.0510 C.3   198  HIS198      0.0745
    110  CG        18.7220   44.5460  133.7240 C.ar  198  HIS198      0.0817
    111  ND1       19.8470   44.6400  134.5150 N.ar  198  HIS198     -0.2268
    112  CD2       18.1490   45.7740  133.7340 C.ar  198  HIS198      0.1154
    113  CE1       19.9530   45.8720  134.9780 C.ar  198  HIS198      0.1986
    114  NE2       18.9330   46.5790  134.5210 N.ar  198  HIS198     -0.2212
    115  N         12.8330   48.6640  127.0490 N.3   217  VAL217     -0.1245
    116  CA        13.3100   49.6000  128.0850 C.3   217  VAL217      0.1561
    117  C         14.1690   48.9440  129.2010 C.2   217  VAL217      0.2260
    118  O         15.0740   49.5790  129.7600 O.2   217  VAL217     -0.2867
    119  CB        12.1350   50.4400  128.6670 C.3   217  VAL217      0.0252
    120  CG1       11.2390   49.5980  129.5760 C.3   217  VAL217      0.0019
    121  CG2       12.6490   51.6980  129.3600 C.3   217  VAL217      0.0019
    122  N         16.3460   46.5970  128.9430 N.3   219  TYR219     -0.1228
    123  CA        17.6450   46.0730  128.5290 C.3   219  TYR219      0.1721
    124  C         18.7620   46.6740  129.3900 C.2   219  TYR219      0.2437
    125  O         18.7360   47.8720  129.6620 O.2   219  TYR219     -0.2733
    126  CB        17.9080   46.3250  127.0390 C.3   219  TYR219      0.0547
    127  CG        19.0000   45.4330  126.5230 C.ar  219  TYR219     -0.0200
    128  CD1       18.7860   44.0530  126.3850 C.ar  219  TYR219     -0.0009
    129  CD2       20.2480   45.9420  126.2040 C.ar  219  TYR219     -0.0009
    130  CE1       19.7870   43.2180  125.9440 C.ar  219  TYR219      0.0417
    131  CE2       21.2640   45.1060  125.7510 C.ar  219  TYR219      0.0417
    132  CZ        21.0270   43.7430  125.6260 C.ar  219  TYR219      0.1957
    133  OH        22.0300   42.8990  125.1710 O.3   219  TYR219     -0.2866
    134  N         19.7410   45.8470  129.8270 N.am  220  PRO220     -0.2729
    135  CA        20.7560   46.3590  130.7650 C.3   220  PRO220      0.1401
    136  C         21.7140   47.3950  130.1570 C.2   220  PRO220      0.2269
    137  O         22.2510   48.2320  130.9000 O.2   220  PRO220     -0.2865
    138  CB        21.5370   45.1010  131.2140 C.3   220  PRO220      0.0296
    139  CG        20.9600   43.9450  130.4820 C.3   220  PRO220      0.0237
    140  CD        19.9520   44.4240  129.4840 C.3   220  PRO220      0.0939
    141  N         21.8030   50.6850  128.3380 N.3   222  ALA222     -0.1231
    142  CA        20.7800   51.7340  128.2540 C.3   222  ALA222      0.1694
    143  C         20.3580   52.0460  126.8220 C.2   222  ALA222      0.2592
    144  O         21.1710   52.3980  125.9870 O.2   222  ALA222     -0.2718
    145  CB        21.2620   53.0140  128.9880 C.3   222  ALA222      0.0304
    146  N         19.0780   51.8670  126.5330 N.am  223  VAL223     -0.1966
    147  CA        18.5240   52.2390  125.2340 C.3   223  VAL223      0.1727
    148  C         18.5730   53.7830  125.0030 C.2   223  VAL223      0.2616
    149  O         18.4210   54.5690  125.9580 O.2   223  VAL223     -0.2715
    150  CB        17.0910   51.6920  125.0880 C.3   223  VAL223      0.0290
    151  CG1       17.0960   50.1530  125.2080 C.3   223  VAL223      0.0023
    152  CG2       16.1580   52.2940  126.1180 C.3   223  VAL223      0.0023
    153  N         18.8040   54.1850  123.7520 N.am  224  SER224     -0.1950
    154  CA        18.8630   55.5880  123.3180 C.3   224  SER224      0.1924
    155  C         17.4960   56.3100  123.3160 C.2   224  SER224      0.2314
    156  O         17.3910   57.5170  123.5830 O.2   224  SER224     -0.2863
    157  CB        19.4510   55.6300  121.9130 C.3   224  SER224      0.2116
    158  OG        18.5760   54.9910  120.9860 O.3   224  SER224     -0.2180
@<TRIPOS>BOND
     1   158   157    1
     2   157   154    1
     3   155   154    1
     4   155   156    2
     5   154   153    1
     6   153   148   am
     7   148   147    1
     8   148   149    2
     9   150   151    1
    10   150   147    1
    11   150   152    1
    12   133   132    1
    13   147   146    1
    14   132   131   ar
    15   132   130   ar
    16    60    58   ar
    17   131   129   ar
    18   130   128   ar
    19   144   143    2
    20    67    66    1
    21   129   127   ar
    22    58    57    1
    23    58    59   ar
    24   128   127   ar
    25    57    56    1
    26   127   126    1
    27   146   143   am
    28   143   142    1
    29    68    66    1
    30   126   123    1
    31   115   116    1
    32    52    53    1
    33    66    65    1
    34    56    53    1
    35    53    54    1
    36   116   119    1
    37   116   117    1
    38   142   141    1
    39   142   145    1
    40   123   122    1
    41   123   124    1
    42    65    62    1
    43   119   121    1
    44   119   120    1
    45   117   118    2
    46    54    55    2
    47   124   125    2
    48   124   134   am
    49   140   134    1
    50   140   139    1
    51    62    61    1
    52    62    63    1
    53   134   135    1
    54   136   135    1
    55   136   137    2
    56   139   138    1
    57   135   138    1
    58    63    64    2
    59    63    69   am
    60    33    32    1
    61    69    70    1
    62   107   108    2
    63   107   106    1
    64    82    84   ar
    65    82    81   ar
    66    75    73    1
    67    84    85   ar
    68    17    18    1
    69    17    16    1
    70    19    18    2
    71    34    32    1
    72    11    10    2
    73    32    31    1
    74    70    73    1
    75    70    71    1
    76   106   109    1
    77   106   105    1
    78   109   110    1
    79    80    81    1
    80    80    77    1
    81    81    83   ar
    82    18    20   am
    83    16    10   am
    84    76    77    1
    85    10     9    1
    86    73    74    1
    87    77    78    1
    88   110   112   ar
    89   110   111   ar
    90   112   114   ar
    91    85    83   ar
    92    71    72    2
    93     9    12    1
    94     9     8    1
    95    31    28    1
    96    15    14    1
    97   111   113   ar
    98   114   113   ar
    99    20    21    1
   100    12    13    1
   101    78    79    2
   102    78    86   am
   103    13    14    1
   104    21    22    1
   105    21    24    1
   106    27    28    1
   107    27    22   am
   108    28    29    1
   109    22    23    2
   110    86    87    1
   111    29    30    2
   112    29    35    1
   113   103   104   ar
   114   103   101   ar
   115    25    24    1
   116   104   102   ar
   117    94    92   ar
   118    24    26    1
   119    35    36    2
   120   101   100   ar
   121    87    90    1
   122    87    88    1
   123    95    96    1
   124    91    92    1
   125    91    90    1
   126    92    93   ar
   127   102   100   ar
   128   100    99    1
   129    88    89    2
   130    36    37    1
   131    38    37    2
   132    96    99    1
   133    96    97    1
   134    37    39   am
   135    97    98    2
   136    39    40    1
   137    40    41    1
   138    40    43    1
   139    51    48    1
   140    45    44    1
   141    41    47   am
   142    41    42    2
   143    47    48    1
   144     7     5    1
   145    43    44    1
   146     6     5    1
   147     5     2    1
   148    48    49    1
   149    50    49    2
   150    44    46    1
   151     2     1    1
   152     2     3    1
   153     3     4    2
