@<TRIPOS>MOLECULE
tmp/2a8qA00.pdb
 91 86 0 0 0
SMALL
GASTEIGER

@<TRIPOS>ATOM
      1  N         22.5490   55.4710    9.3650 N.3    18  ALA18      -0.1245
      2  CA        22.1710   54.2870    8.5840 C.3    18  ALA18       0.1562
      3  C         22.0070   53.0440    9.4490 C.2    18  ALA18       0.2260
      4  O         22.7440   52.8500   10.4100 O.2    18  ALA18      -0.2867
      5  CB        23.1820   54.0300    7.4760 C.3    18  ALA18       0.0290
      6  N         21.4870   48.7380    9.2040 N.3    20  HIS20      -0.1241
      7  CA        21.4170   47.4770    8.4810 C.3    20  HIS20       0.1621
      8  C         21.4010   46.2980    9.4490 C.2    20  HIS20       0.2264
      9  O         21.9140   46.3770   10.5890 O.2    20  HIS20      -0.2867
     10  CB        22.5910   47.3300    7.5090 C.3    20  HIS20       0.0745
     11  CG        22.7210   48.4560    6.5280 C.ar   20  HIS20       0.0817
     12  ND1       22.2080   48.3920    5.2510 N.ar   20  HIS20      -0.2268
     13  CD2       23.3140   49.6680    6.6370 C.ar   20  HIS20       0.1154
     14  CE1       22.4750   49.5180    4.6170 C.ar   20  HIS20       0.1986
     15  NE2       23.1410   50.3100    5.4370 N.ar   20  HIS20      -0.2212
     16  N         22.8520   44.8780   -4.2090 N.3    46  ARG46      -0.1231
     17  CA        22.2710   46.2000   -4.3010 C.3    46  ARG46       0.1694
     18  C         22.2320   46.6990   -5.7490 C.2    46  ARG46       0.2592
     19  O         22.9590   46.2020   -6.6170 O.2    46  ARG46      -0.2718
     20  CB        23.0670   47.1750   -3.4320 C.3    46  ARG46       0.0321
     21  CG        23.3540   46.6730   -2.0140 C.3    46  ARG46       0.0489
     22  CD        24.6730   47.2450   -1.4290 C.3    46  ARG46       0.2205
     23  NE        24.8950   48.6710   -1.7370 N.pl3  46  ARG46      -0.0865
     24  CZ        24.1780   49.6770   -1.2330 C.cat  46  ARG46       0.5346
     25  NH1       23.1850   49.4240   -0.3960 N.pl3  46  ARG46       0.1354
     26  NH2       24.4430   50.9360   -1.5780 N.pl3  46  ARG46       0.1354
     27  N         21.3810   47.6970   -5.9870 N.am   47  PHE47      -0.1976
     28  CA        21.2940   48.4290   -7.2580 C.3    47  PHE47       0.1639
     29  C         22.6570   48.9170   -7.7520 C.2    47  PHE47       0.2290
     30  O         22.8400   49.1200   -8.9440 O.2    47  PHE47      -0.2864
     31  CB        20.3970   49.6600   -7.0640 C.3    47  PHE47       0.0560
     32  CG        20.9840   50.6780   -6.1210 C.ar   47  PHE47      -0.0200
     33  CD1       20.9020   50.5000   -4.7450 C.ar   47  PHE47      -0.0042
     34  CD2       21.6700   51.7880   -6.6140 C.ar   47  PHE47      -0.0042
     35  CE1       21.4790   51.4340   -3.8600 C.ar   47  PHE47      -0.0003
     36  CE2       22.2490   52.7200   -5.7510 C.ar   47  PHE47      -0.0003
     37  CZ        22.1520   52.5440   -4.3690 C.ar   47  PHE47      -0.0000
     38  N         18.5460   47.3350    4.7880 N.3    55  GLY55      -0.1209
     39  CA        18.4340   48.4970    5.6660 C.3    55  GLY55       0.1959
     40  C         18.6920   49.7940    4.9080 C.2    55  GLY55       0.2652
     41  O         18.5770   49.8370    3.6750 O.2    55  GLY55      -0.2714
     42  N         19.0350   50.8550    5.6380 N.am   56  GLY56      -0.1718
     43  CA        19.3220   52.1470    5.0160 C.2    56  GLY56       0.1480
     44  C         19.2780   53.3660    5.9250 C.2    56  GLY56       0.2820
     45  O         19.5070   53.2740    7.1370 O.2    56  GLY56      -0.2669
     46  N         18.9860   54.5180    5.3270 N.am   57  PHE57      -0.1939
     47  CA        18.9760   55.7810    6.0550 C.3    57  PHE57       0.1642
     48  C         17.7540   55.9020    6.9650 C.2    57  PHE57       0.2290
     49  O         16.6390   55.5760    6.5620 O.2    57  PHE57      -0.2864
     50  CB        19.0790   56.9710    5.0860 C.3    57  PHE57       0.0560
     51  CG        20.3860   57.0280    4.3230 C.ar   57  PHE57      -0.0200
     52  CD1       21.5100   57.6360    4.8790 C.ar   57  PHE57      -0.0042
     53  CD2       20.4920   56.4710    3.0490 C.ar   57  PHE57      -0.0042
     54  CE1       22.7170   57.6870    4.1810 C.ar   57  PHE57      -0.0003
     55  CE2       21.6960   56.5210    2.3410 C.ar   57  PHE57      -0.0003
     56  CZ        22.8100   57.1310    2.9090 C.ar   57  PHE57      -0.0000
     57  N         12.7510   50.4450    6.4930 N.3    70  GLU70      -0.1245
     58  CA        13.6200   50.1000    5.3710 C.3    70  GLU70       0.1567
     59  C         13.5240   48.6100    5.0620 C.2    70  GLU70       0.2260
     60  O         13.4260   48.2300    3.8940 O.2    70  GLU70      -0.2867
     61  CB        15.0760   50.5300    5.6220 C.3    70  GLU70       0.0388
     62  CG        15.3260   52.0510    5.5640 C.3    70  GLU70       0.1160
     63  CD        14.9970   52.6720    4.2090 C.2    70  GLU70       0.3649
     64  OE1       14.4160   53.7750    4.1910 O.co2  70  GLU70      -0.2457
     65  OE2       15.3060   52.0610    3.1600 O.co2  70  GLU70      -0.2457
     66  N         12.4460   46.8440    1.6190 N.3    74  GLU74      -0.1245
     67  CA        13.4590   46.0900    0.9070 C.3    74  GLU74       0.1567
     68  C         13.1930   44.6070    0.9260 C.2    74  GLU74       0.2260
     69  O         13.5220   43.9040   -0.0330 O.2    74  GLU74      -0.2867
     70  CB        14.8470   46.3890    1.4770 C.3    74  GLU74       0.0388
     71  CG        15.3750   47.7600    1.0600 C.3    74  GLU74       0.1160
     72  CD        16.7070   48.0870    1.6670 C.2    74  GLU74       0.3649
     73  OE1       17.4460   47.1420    1.9940 O.co2  74  GLU74      -0.2457
     74  OE2       17.0170   49.2920    1.8200 O.co2  74  GLU74      -0.2457
     75  N         16.0730   49.0190   -5.7510 N.3   131  GLU131     -0.1245
     76  CA        17.1410   49.1270   -4.7570 C.3   131  GLU131      0.1567
     77  C         17.7230   47.7550   -4.4800 C.2   131  GLU131      0.2260
     78  O         18.9140   47.6280   -4.1800 O.2   131  GLU131     -0.2867
     79  CB        16.6360   49.7560   -3.4490 C.3   131  GLU131      0.0388
     80  CG        16.1390   51.2210   -3.5420 C.3   131  GLU131      0.1160
     81  CD        14.7190   51.3720   -4.1320 C.2   131  GLU131      0.3649
     82  OE1       14.0400   50.3470   -4.3680 O.co2 131  GLU131     -0.2457
     83  OE2       14.2780   52.5280   -4.3650 O.co2 131  GLU131     -0.2457
     84  N         29.6410   46.7960   -0.2250 N.3   158  ILE158     -0.1245
     85  CA        29.4180   48.2230    0.0330 C.3   158  ILE158      0.1561
     86  C         30.0360   48.5900    1.3870 C.2   158  ILE158      0.2260
     87  O         30.0590   47.7690    2.3160 O.2   158  ILE158     -0.2867
     88  CB        27.9180   48.5960   -0.0290 C.3   158  ILE158      0.0252
     89  CG1       27.7120   50.1250   -0.0160 C.3   158  ILE158      0.0019
     90  CG2       27.1610   47.9460    1.1240 C.3   158  ILE158      0.0019
     91  CD1       28.1640   50.8790   -1.2820 C.3   158  ILE158      0.0001
@<TRIPOS>BOND
     1    30    29    2
     2    29    28    1
     3    28    31    1
     4    28    27    1
     5    31    32    1
     6    19    18    2
     7    34    32   ar
     8    34    36   ar
     9    32    33   ar
    10    27    18   am
    11    75    76    1
    12    36    37   ar
    13    18    17    1
    14    76    77    1
    15    76    79    1
    16    33    35   ar
    17    77    78    2
    18    37    35   ar
    19    82    81   ar
    20    83    81   ar
    21    17    16    1
    22    17    20    1
    23    81    80    1
    24    80    79    1
    25    20    21    1
    26    21    22    1
    27    23    22    1
    28    23    24    2
    29    26    24    1
    30    91    89    1
    31    24    25    1
    32    84    85    1
    33    69    68    2
    34    88    89    1
    35    88    85    1
    36    88    90    1
    37    85    86    1
    38    67    68    1
    39    67    70    1
    40    67    66    1
    41    71    70    1
    42    71    72    1
    43    86    87    2
    44    72    74   ar
    45    72    73   ar
    46    55    56   ar
    47    55    53   ar
    48    56    54   ar
    49    53    51   ar
    50    65    63   ar
    51    41    40    2
    52    60    59    2
    53    54    52   ar
    54    64    63   ar
    55    63    62    1
    56    51    52   ar
    57    51    50    1
    58    14    12   ar
    59    14    15   ar
    60    38    39    1
    61    40    42    1
    62    40    39    1
    63    43    42    2
    64    43    44    1
    65    59    58    1
    66    50    47    1
    67    12    11   ar
    68    46    44   am
    69    46    47    1
    70    58    61    1
    71    58    57    1
    72    15    13   ar
    73    62    61    1
    74    44    45    2
    75    47    48    1
    76    11    13   ar
    77    11    10    1
    78    49    48    2
    79     5     2    1
    80    10     7    1
    81     7     6    1
    82     7     8    1
    83     2     1    1
    84     2     3    1
    85     8     9    2
    86     3     4    2
