@<TRIPOS>MOLECULE
tmp/2a8sA00.pdb
 195 186 0 0 0
SMALL
GASTEIGER

@<TRIPOS>ATOM
      1  N         22.9760   55.7060    9.4480 N.3    18  ALA18      -0.1245
      2  CA        22.4990   54.5630    8.6620 C.3    18  ALA18       0.1562
      3  C         22.4020   53.2940    9.5050 C.2    18  ALA18       0.2260
      4  O         23.1980   53.0820   10.4200 O.2    18  ALA18      -0.2867
      5  CB        23.3940   54.3270    7.4470 C.3    18  ALA18       0.0290
      6  N         21.7850   48.9410    9.3330 N.3    20  HIS20      -0.1241
      7  CA        21.7420   47.7090    8.5540 C.3    20  HIS20       0.1621
      8  C         21.7510   46.4940    9.4790 C.2    20  HIS20       0.2264
      9  O         22.3270   46.5400   10.5750 O.2    20  HIS20      -0.2867
     10  CB        22.9010   47.6550    7.5500 C.3    20  HIS20       0.0745
     11  CG        22.8220   48.6970    6.4740 C.ar   20  HIS20       0.0817
     12  ND1       23.4850   49.9020    6.5540 N.ar   20  HIS20      -0.2268
     13  CD2       22.1520   48.7130    5.2970 C.ar   20  HIS20       0.1154
     14  CE1       23.2260   50.6170    5.4740 C.ar   20  HIS20       0.1986
     15  NE2       22.4200   49.9180    4.6950 N.ar   20  HIS20      -0.2212
     16  N         22.3180   40.9770    0.1910 N.3    44  MET44      -0.1245
     17  CA        21.6550   41.3060   -1.0590 C.3    44  MET44       0.1570
     18  C         22.6210   41.8770   -2.0640 C.2    44  MET44       0.2261
     19  O         23.6540   42.4620   -1.6970 O.2    44  MET44      -0.2867
     20  CB        20.5190   42.3100   -0.8270 C.3    44  MET44       0.0387
     21  CG        20.9830   43.7020   -0.3880 C.3    44  MET44       0.0595
     22  SD        19.5980   44.8120   -0.1170 S.3    44  MET44      -0.1393
     23  CE        20.3730   46.4160   -0.2800 C.3    44  MET44       0.0692
     24  N         22.8820   44.8740   -4.4120 N.3    46  ARG46      -0.1231
     25  CA        22.2750   46.2030   -4.4430 C.3    46  ARG46       0.1694
     26  C         22.2080   46.7490   -5.8670 C.2    46  ARG46       0.2592
     27  O         22.8860   46.2550   -6.7660 O.2    46  ARG46      -0.2718
     28  CB        23.0980   47.1670   -3.5910 C.3    46  ARG46       0.0321
     29  CG        23.2970   46.7530   -2.1440 C.3    46  ARG46       0.0489
     30  CD        24.5130   47.4670   -1.5060 C.3    46  ARG46       0.2205
     31  NE        24.6500   48.8740   -1.9150 N.pl3  46  ARG46      -0.0865
     32  CZ        24.0300   49.8980   -1.3360 C.cat  46  ARG46       0.5346
     33  NH1       23.2190   49.6970   -0.3090 N.pl3  46  ARG46       0.1354
     34  NH2       24.2160   51.1280   -1.7900 N.pl3  46  ARG46       0.1354
     35  N         21.4110   47.7950   -6.0470 N.am   47  PHE47      -0.1976
     36  CA        21.3350   48.5520   -7.2980 C.3    47  PHE47       0.1639
     37  C         22.6930   49.0090   -7.8290 C.2    47  PHE47       0.2290
     38  O         22.8450   49.1870   -9.0220 O.2    47  PHE47      -0.2864
     39  CB        20.4400   49.7900   -7.1090 C.3    47  PHE47       0.0560
     40  CG        21.0310   50.8320   -6.1920 C.ar   47  PHE47      -0.0200
     41  CD1       20.9530   50.6920   -4.8070 C.ar   47  PHE47      -0.0042
     42  CD2       21.6800   51.9560   -6.7150 C.ar   47  PHE47      -0.0042
     43  CE1       21.5120   51.6580   -3.9560 C.ar   47  PHE47      -0.0003
     44  CE2       22.2370   52.9280   -5.8730 C.ar   47  PHE47      -0.0003
     45  CZ        22.1550   52.7750   -4.4920 C.ar   47  PHE47      -0.0000
     46  N         25.5880   43.8990    0.0170 N.3    52  GLY52      -0.1210
     47  CA        25.3530   44.6010    1.2770 C.3    52  GLY52       0.1956
     48  C         24.3000   43.9530    2.1580 C.2    52  GLY52       0.2611
     49  O         23.7020   42.9270    1.7900 O.2    52  GLY52      -0.2717
     50  N         24.0710   44.5570    3.3230 N.am   53  PHE53      -0.1976
     51  CA        22.9930   44.1330    4.2200 C.3    53  PHE53       0.1639
     52  C         21.7070   44.9460    3.9580 C.2    53  PHE53       0.2290
     53  O         21.7880   46.0690    3.4630 O.2    53  PHE53      -0.2864
     54  CB        23.4490   44.2420    5.6810 C.3    53  PHE53       0.0560
     55  CG        24.5360   43.2600    6.0540 C.ar   53  PHE53      -0.0200
     56  CD1       25.8620   43.6780    6.1860 C.ar   53  PHE53      -0.0042
     57  CD2       24.2380   41.9150    6.2660 C.ar   53  PHE53      -0.0042
     58  CE1       26.8710   42.7720    6.5240 C.ar   53  PHE53      -0.0003
     59  CE2       25.2400   41.0020    6.6030 C.ar   53  PHE53      -0.0003
     60  CZ        26.5560   41.4310    6.7360 C.ar   53  PHE53      -0.0000
     61  N         18.6680   47.4800    4.6920 N.3    55  GLY55      -0.1210
     62  CA        18.5700   48.6550    5.5570 C.3    55  GLY55       0.1956
     63  C         18.8980   49.9490    4.8380 C.2    55  GLY55       0.2612
     64  O         18.7420   50.0460    3.6150 O.2    55  GLY55      -0.2717
     65  N         19.3300   50.9500    5.6010 N.am   56  GLY56      -0.1942
     66  CA        19.8020   52.2030    5.0240 C.3    56  GLY56       0.2014
     67  C         19.7760   53.4270    5.9200 C.2    56  GLY56       0.2638
     68  O         19.7590   53.3170    7.1510 O.2    56  GLY56      -0.2714
     69  N         19.7850   54.5990    5.2830 N.am   57  PHE57      -0.1973
     70  CA        19.7900   55.8800    5.9820 C.3    57  PHE57       0.1639
     71  C         18.6420   55.9640    6.9750 C.2    57  PHE57       0.2290
     72  O         17.4700   55.8720    6.5930 O.2    57  PHE57      -0.2864
     73  CB        19.7110   57.0570    4.9970 C.3    57  PHE57       0.0560
     74  CG        21.0090   57.3590    4.2900 C.ar   57  PHE57      -0.0200
     75  CD1       22.1200   57.8120    5.0010 C.ar   57  PHE57      -0.0042
     76  CD2       21.1110   57.2140    2.9070 C.ar   57  PHE57      -0.0042
     77  CE1       23.3160   58.0990    4.3460 C.ar   57  PHE57      -0.0003
     78  CE2       22.2970   57.5030    2.2410 C.ar   57  PHE57      -0.0003
     79  CZ        23.4040   57.9460    2.9610 C.ar   57  PHE57      -0.0000
     80  N         11.6010   50.1930    9.0200 N.3    71  ARG71      -0.1231
     81  CA        10.9800   50.7240    7.8070 C.3    71  ARG71       0.1694
     82  C         11.7890   50.3220    6.5720 C.2    71  ARG71       0.2591
     83  O         11.2490   49.7280    5.6360 O.2    71  ARG71      -0.2718
     84  CB        10.8540   52.2490    7.8920 C.3    71  ARG71       0.0321
     85  CG         9.7470   52.8480    7.0140 C.3    71  ARG71       0.0489
     86  CD         9.9400   54.3510    6.7690 C.3    71  ARG71       0.2205
     87  NE        11.1300   54.6070    5.9550 N.pl3  71  ARG71      -0.0865
     88  CZ        12.2710   55.1140    6.4140 C.cat  71  ARG71       0.5346
     89  NH1       13.2970   55.2900    5.5890 N.pl3  71  ARG71       0.1354
     90  NH2       12.3900   55.4500    7.6930 N.pl3  71  ARG71       0.1354
     91  N         13.0850   50.6360    6.5850 N.am   72  GLU72      -0.1979
     92  CA        13.9980   50.2340    5.5180 C.3    72  GLU72       0.1602
     93  C         13.9170   48.7310    5.2650 C.2    72  GLU72       0.2287
     94  O         13.8920   48.3030    4.1130 O.2    72  GLU72      -0.2864
     95  CB        15.4380   50.6460    5.8400 C.3    72  GLU72       0.0415
     96  CG        15.7350   52.1370    5.6790 C.3    72  GLU72       0.1163
     97  CD        15.7040   52.6190    4.2250 C.2    72  GLU72       0.3649
     98  OE1       15.4650   53.8250    4.0170 O.co2  72  GLU72      -0.2457
     99  OE2       15.9190   51.8070    3.2910 O.co2  72  GLU72      -0.2457
    100  N         10.7870   48.0600    3.4690 N.3    75  GLU75      -0.1231
    101  CA        10.9430   48.7060    2.1750 C.3    75  GLU75       0.1699
    102  C         11.7820   47.8230    1.2570 C.2    75  GLU75       0.2592
    103  O         11.4910   47.6770    0.0640 O.2    75  GLU75      -0.2718
    104  CB        11.6170   50.0680    2.3650 C.3    75  GLU75       0.0402
    105  CG        11.2170   51.1460    1.3680 C.3    75  GLU75       0.1161
    106  CD        11.5670   52.5540    1.8540 C.2    75  GLU75       0.3649
    107  OE1       10.8520   53.0640    2.7430 O.co2  75  GLU75      -0.2457
    108  OE2       12.5420   53.1560    1.3430 O.co2  75  GLU75      -0.2457
    109  N         12.8020   47.1980    1.8340 N.am   76  GLU76      -0.1979
    110  CA        13.8170   46.5130    1.0480 C.3    76  GLU76       0.1602
    111  C         13.6370   45.0070    1.0030 C.2    76  GLU76       0.2287
    112  O         13.9900   44.3730    0.0070 O.2    76  GLU76      -0.2864
    113  CB        15.2210   46.9000    1.5280 C.3    76  GLU76       0.0415
    114  CG        15.5600   48.3660    1.2240 C.3    76  GLU76       0.1163
    115  CD        16.9970   48.7290    1.5200 C.2    76  GLU76       0.3649
    116  OE1       17.8030   47.8120    1.8020 O.co2  76  GLU76      -0.2457
    117  OE2       17.3160   49.9380    1.4670 O.co2  76  GLU76      -0.2457
    118  N         32.7410   57.5870    9.6370 N.3    97  ARG97      -0.1245
    119  CA        33.6620   57.8040    8.5280 C.3    97  ARG97       0.1563
    120  C         33.5450   59.2540    8.0520 C.2    97  ARG97       0.2260
    121  O         32.5620   59.9350    8.3600 O.2    97  ARG97      -0.2867
    122  CB        33.3650   56.8270    7.3850 C.3    97  ARG97       0.0307
    123  CG        31.9830   57.0050    6.7700 C.3    97  ARG97       0.0489
    124  CD        31.7050   56.0010    5.6630 C.3    97  ARG97       0.2205
    125  NE        30.3910   56.2040    5.0590 N.pl3  97  ARG97      -0.0865
    126  CZ        29.8960   55.4280    4.0880 C.cat  97  ARG97       0.5346
    127  NH1       30.5870   54.4140    3.6040 N.pl3  97  ARG97       0.1354
    128  NH2       28.6950   55.6800    3.5830 N.pl3  97  ARG97       0.1354
    129  N         33.4620   59.3280    2.1850 N.3   100  PRO100     -0.2102
    130  CA        32.7090   59.8330    1.0370 C.3   100  PRO100      0.1504
    131  C         31.5610   60.7830    1.4050 C.2   100  PRO100      0.2575
    132  O         31.0540   61.5010    0.5400 O.2   100  PRO100     -0.2718
    133  CB        32.1490   58.5940    0.3680 C.3   100  PRO100      0.0282
    134  CG        31.7290   57.8110    1.5930 C.3   100  PRO100      0.0208
    135  CD        32.9250   57.9690    2.5280 C.3   100  PRO100      0.0893
    136  N         31.1600   60.7950    2.6770 N.am  101  GLN101     -0.1980
    137  CA        29.9480   61.5110    3.0810 C.3   101  GLN101      0.1601
    138  C         29.9640   62.0880    4.4980 C.2   101  GLN101      0.2287
    139  O         29.1550   62.9660    4.8090 O.2   101  GLN101     -0.2864
    140  CB        28.7180   60.6100    2.8920 C.3   101  GLN101      0.0394
    141  CG        27.4680   61.4480    3.0120 C.3   101  GLN101      0.0908
    142  CD        26.2200   60.6040    3.1840 C.2   101  GLN101      0.2608
    143  OE1       26.3250   59.4260    3.4370 O.2   101  GLN101     -0.2717
    144  NE2       25.1080   61.2860    3.0190 N.am  101  GLN101     -0.0878
    145  N         27.3490   54.3550   10.5540 N.3   104  THR104     -0.1218
    146  CA        26.6320   53.1140   10.2290 C.3   104  THR104      0.1862
    147  C         26.4540   52.2200   11.4510 C.2   104  THR104      0.2287
    148  O         27.4200   51.8970   12.1450 O.2   104  THR104     -0.2866
    149  CB        27.3140   52.3110    9.0980 C.3   104  THR104      0.1770
    150  OG1       28.7030   52.1300    9.4020 O.3   104  THR104     -0.2211
    151  CG2       27.1700   53.0330    7.7670 C.3   104  THR104      0.0375
    152  N         16.2230   49.1350   -5.7410 N.3   132  GLU132     -0.1245
    153  CA        17.3710   49.2070   -4.8350 C.3   132  GLU132      0.1567
    154  C         17.9400   47.8180   -4.5610 C.2   132  GLU132      0.2260
    155  O         19.1440   47.6610   -4.3650 O.2   132  GLU132     -0.2867
    156  CB        16.9880   49.8750   -3.5140 C.3   132  GLU132      0.0388
    157  CG        16.6520   51.3630   -3.6250 C.3   132  GLU132      0.1160
    158  CD        16.6620   52.0850   -2.2810 C.2   132  GLU132      0.3649
    159  OE1       16.7250   51.4130   -1.2180 O.co2 132  GLU132     -0.2457
    160  OE2       16.6090   53.3330   -2.2910 O.co2 132  GLU132     -0.2457
    161  N         29.7860   46.8900   -0.2430 N.3   159  ILE159     -0.1231
    162  CA        29.5310   48.3170   -0.0350 C.3   159  ILE159      0.1692
    163  C         29.9850   48.8060    1.3450 C.2   159  ILE159      0.2593
    164  O         30.0390   48.0270    2.2970 O.2   159  ILE159     -0.2718
    165  CB        28.0340   48.6550   -0.2440 C.3   159  ILE159      0.0266
    166  CG1       27.8140   50.1770   -0.3010 C.3   159  ILE159      0.0019
    167  CG2       27.1700   48.0000    0.8320 C.3   159  ILE159      0.0020
    168  CD1       28.3120   50.8380   -1.5780 C.3   159  ILE159      0.0001
    169  N         30.3010   50.1010    1.4410 N.am  160  GLY160     -0.1942
    170  CA        30.7220   50.7320    2.6980 C.3   160  GLY160      0.2014
    171  C         31.6980   49.8440    3.4400 C.2   160  GLY160      0.2639
    172  O         32.7650   49.5130    2.9200 O.2   160  GLY160     -0.2714
    173  N         31.3330   49.4440    4.6520 N.am  161  ASN161     -0.1958
    174  CA        32.0920   48.4090    5.3420 C.3   161  ASN161      0.1819
    175  C         31.2140   47.2430    5.8080 C.2   161  ASN161      0.2622
    176  O         31.2720   46.8200    6.9670 O.2   161  ASN161     -0.2715
    177  CB        32.9550   48.9930    6.4710 C.3   161  ASN161      0.1195
    178  CG        32.1360   49.6310    7.5680 C.2   161  ASN161      0.2630
    179  OD1       31.3420   50.5420    7.3250 O.2   161  ASN161     -0.2716
    180  ND2       32.3290   49.1550    8.7910 N.am  161  ASN161     -0.0877
    181  N         30.4090   46.7260    4.8810 N.am  162  SER162     -0.1950
    182  CA        29.5820   45.5530    5.1370 C.3   162  SER162      0.1924
    183  C         30.4210   44.2860    5.3310 C.2   162  SER162      0.2314
    184  O         30.0570   43.4100    6.1250 O.2   162  SER162     -0.2863
    185  CB        28.5570   45.3570    4.0170 C.3   162  SER162      0.2116
    186  OG        29.2000   45.2460    2.7660 O.3   162  SER162     -0.2180
    187  N         31.6680   44.2960    8.7170 N.3   165  GLN165     -0.1245
    188  CA        30.5280   43.9260    9.5420 C.3   165  GLN165      0.1566
    189  C         30.2370   42.4330    9.4750 C.2   165  GLN165      0.2260
    190  O         29.9080   41.8250   10.4960 O.2   165  GLN165     -0.2867
    191  CB        29.2920   44.7240    9.1300 C.3   165  GLN165      0.0367
    192  CG        29.3340   46.1860    9.5490 C.3   165  GLN165      0.0905
    193  CD        28.2050   47.0060    8.9520 C.2   165  GLN165      0.2608
    194  OE1       27.6680   46.6770    7.8920 O.2   165  GLN165     -0.2717
    195  NE2       27.8450   48.0860    9.6290 N.am  165  GLN165     -0.0878
@<TRIPOS>BOND
     1    38    37    2
     2    37    36    1
     3    36    39    1
     4    36    35    1
     5    39    40    1
     6    27    26    2
     7    42    40   ar
     8    42    44   ar
     9    40    41   ar
    10    35    26   am
    11    44    45   ar
    12    26    25    1
    13   152   153    1
    14   153   154    1
    15   153   156    1
    16    41    43   ar
    17   154   155    2
    18    45    43   ar
    19    25    24    1
    20    25    28    1
    21   157   156    1
    22   157   158    1
    23    28    29    1
    24   160   158   ar
    25   158   159   ar
    26    29    30    1
    27    18    19    2
    28    18    17    1
    29    31    30    1
    30    31    32    2
    31    34    32    1
    32   168   166    1
    33    32    33    1
    34    17    20    1
    35    17    16    1
    36    20    21    1
    37    21    22    1
    38   166   165    1
    39    23    22    1
    40   165   162    1
    41   165   167    1
    42   161   162    1
    43   162   163    1
    44   112   111    2
    45    46    47    1
    46   103   102    2
    47   133   130    1
    48   133   134    1
    49   132   131    2
    50   111   110    1
    51   130   131    1
    52   130   129    1
    53   110   113    1
    54   110   109    1
    55   114   115    1
    56   114   113    1
    57   102   109   am
    58   102   101    1
    59    47    48    1
    60   108   106   ar
    61   163   169   am
    62   163   164    2
    63   105   106    1
    64   105   104    1
    65   131   136   am
    66   169   170    1
    67   117   115   ar
    68   115   116   ar
    69   134   135    1
    70    49    48    2
    71   106   107   ar
    72    48    50   am
    73   101   104    1
    74   101   100    1
    75   129   135    1
    76    78    76   ar
    77    78    79   ar
    78   136   137    1
    79   170   171    1
    80   186   185    1
    81   140   141    1
    82   140   137    1
    83    76    74   ar
    84   172   171    2
    85    79    77   ar
    86   141   142    1
    87   144   142   am
    88   137   138    1
    89   142   143    2
    90    99    97   ar
    91    50    51    1
    92   171   173   am
    93    53    52    2
    94   128   126    1
    95   127   126    1
    96    64    63    2
    97    52    51    1
    98    98    97   ar
    99   185   182    1
   100   126   125    2
   101    94    93    2
   102    51    54    1
   103    97    96    1
   104    74    73    1
   105    74    75   ar
   106    77    75   ar
   107   138   139    2
   108   173   174    1
   109    61    62    1
   110    15    13   ar
   111    15    14   ar
   112    63    62    1
   113    63    65   am
   114   181   182    1
   115   181   175   am
   116    73    70    1
   117    66    65    1
   118    66    67    1
   119   125   124    1
   120   182   183    1
   121    93    92    1
   122    69    67   am
   123    69    70    1
   124    13    11   ar
   125   183   184    2
   126   174   175    1
   127   174   177    1
   128    14    12   ar
   129    92    95    1
   130    92    91    1
   131    89    88    1
   132    83    82    2
   133   124   123    1
   134    96    95    1
   135    54    55    1
   136   175   176    2
   137    67    68    2
   138    87    88    2
   139    87    86    1
   140    70    71    1
   141    55    56   ar
   142    55    57   ar
   143    56    58   ar
   144    57    59   ar
   145    88    90    1
   146   177   178    1
   147    11    12   ar
   148    11    10    1
   149    58    60   ar
   150    82    91   am
   151    82    81    1
   152    72    71    2
   153    59    60   ar
   154    86    85    1
   155   123   122    1
   156    85    84    1
   157   179   178    2
   158   122   119    1
   159     5     2    1
   160    10     7    1
   161   178   180   am
   162   151   149    1
   163    81    84    1
   164    81    80    1
   165   194   193    2
   166   120   121    2
   167   120   119    1
   168   119   118    1
   169     7     6    1
   170     7     8    1
   171     2     1    1
   172     2     3    1
   173   187   188    1
   174   193   192    1
   175   193   195   am
   176   149   150    1
   177   149   146    1
   178   191   188    1
   179   191   192    1
   180   189   188    1
   181   189   190    2
   182     8     9    2
   183     3     4    2
   184   146   145    1
   185   146   147    1
   186   147   148    2
