@<TRIPOS>MOLECULE
tmp/2a8tA00.pdb
 173 164 0 0 0
SMALL
GASTEIGER

@<TRIPOS>ATOM
      1  N         23.5360   54.8850    9.5400 N.3    18  ALA18      -0.1245
      2  CA        22.9610   53.7450    8.8270 C.3    18  ALA18       0.1562
      3  C         22.9850   52.5110    9.7180 C.2    18  ALA18       0.2260
      4  O         23.8720   52.3600   10.5610 O.2    18  ALA18      -0.2867
      5  CB        23.7090   53.4740    7.5200 C.3    18  ALA18       0.0290
      6  N         22.5420   48.2090    9.6110 N.3    20  HIS20      -0.1241
      7  CA        22.4560   46.9850    8.8100 C.3    20  HIS20       0.1621
      8  C         22.4530   45.7390    9.6920 C.2    20  HIS20       0.2264
      9  O         22.9780   45.7590   10.8080 O.2    20  HIS20      -0.2867
     10  CB        23.5730   46.9360    7.7650 C.3    20  HIS20       0.0745
     11  CG        23.4770   48.0230    6.7420 C.ar   20  HIS20       0.0817
     12  ND1       24.0750   49.2540    6.9070 N.ar   20  HIS20      -0.2268
     13  CD2       22.8260   48.0760    5.5570 C.ar   20  HIS20       0.1154
     14  CE1       23.8030   50.0150    5.8620 C.ar   20  HIS20       0.1986
     15  NE2       23.0470   49.3240    5.0290 N.ar   20  HIS20      -0.2212
     16  N         23.5940   44.3760   -4.1760 N.3    46  ARG46      -0.1231
     17  CA        23.0170   45.7230   -4.2040 C.3    46  ARG46       0.1694
     18  C         22.8950   46.3160   -5.6210 C.2    46  ARG46       0.2592
     19  O         23.5990   45.9020   -6.5480 O.2    46  ARG46      -0.2718
     20  CB        23.8830   46.6600   -3.3550 C.3    46  ARG46       0.0321
     21  CG        24.1080   46.2140   -1.9060 C.3    46  ARG46       0.0489
     22  CD        25.3570   46.8900   -1.2850 C.3    46  ARG46       0.2205
     23  NE        25.4510   48.3040   -1.6490 N.pl3  46  ARG46      -0.0865
     24  CZ        24.7620   49.2860   -1.0620 C.cat  46  ARG46       0.5346
     25  NH1       23.9410   49.0230   -0.0610 N.pl3  46  ARG46       0.1354
     26  NH2       24.9010   50.5390   -1.4730 N.pl3  46  ARG46       0.1354
     27  N         22.0280   47.3190   -5.7660 N.am   47  PHE47      -0.1976
     28  CA        21.9290   48.1150   -6.9970 C.3    47  PHE47       0.1639
     29  C         23.2960   48.5950   -7.5100 C.2    47  PHE47       0.2290
     30  O         23.4640   48.8930   -8.6940 O.2    47  PHE47      -0.2864
     31  CB        21.0240   49.3330   -6.7660 C.3    47  PHE47       0.0560
     32  CG        21.6120   50.3680   -5.8390 C.ar   47  PHE47      -0.0200
     33  CD1       21.5000   50.2330   -4.4560 C.ar   47  PHE47      -0.0042
     34  CD2       22.2750   51.4770   -6.3470 C.ar   47  PHE47      -0.0042
     35  CE1       22.0420   51.1940   -3.5950 C.ar   47  PHE47      -0.0003
     36  CE2       22.8270   52.4320   -5.4970 C.ar   47  PHE47      -0.0003
     37  CZ        22.7090   52.2860   -4.1180 C.ar   47  PHE47      -0.0000
     38  N         24.7770   43.8640    3.5840 N.3    53  PHE53      -0.1241
     39  CA        23.6890   43.4160    4.4610 C.3    53  PHE53       0.1605
     40  C         22.4520   44.2840    4.2560 C.2    53  PHE53       0.2264
     41  O         22.5880   45.4480    3.9120 O.2    53  PHE53      -0.2867
     42  CB        24.1360   43.4960    5.9270 C.3    53  PHE53       0.0534
     43  CG        25.2000   42.4980    6.2900 C.ar   53  PHE53      -0.0203
     44  CD1       26.5130   42.8950    6.4190 C.ar   53  PHE53      -0.0042
     45  CD2       24.8810   41.1590    6.5020 C.ar   53  PHE53      -0.0042
     46  CE1       27.5120   41.9770    6.7420 C.ar   53  PHE53      -0.0003
     47  CE2       25.8610   40.2340    6.8320 C.ar   53  PHE53      -0.0003
     48  CZ        27.1830   40.6450    6.9570 C.ar   53  PHE53      -0.0000
     49  N         19.3060   46.7880    5.1140 N.3    55  GLY55      -0.1210
     50  CA        19.2720   47.9710    5.9740 C.3    55  GLY55       0.1956
     51  C         19.6710   49.2270    5.2190 C.2    55  GLY55       0.2612
     52  O         19.7000   49.2300    3.9900 O.2    55  GLY55      -0.2717
     53  N         19.9750   50.3030    5.9450 N.am   56  GLY56      -0.1942
     54  CA        20.4080   51.5380    5.3010 C.3    56  GLY56       0.2014
     55  C         20.3170   52.7500    6.2020 C.2    56  GLY56       0.2638
     56  O         20.2840   52.6230    7.4280 O.2    56  GLY56      -0.2714
     57  N         20.2740   53.9290    5.5860 N.am   57  PHE57      -0.1973
     58  CA        20.2280   55.1920    6.3200 C.3    57  PHE57       0.1639
     59  C         19.0570   55.2650    7.2920 C.2    57  PHE57       0.2290
     60  O         17.9220   54.9210    6.9460 O.2    57  PHE57      -0.2864
     61  CB        20.1700   56.3820    5.3620 C.3    57  PHE57       0.0560
     62  CG        21.4500   56.6330    4.6220 C.ar   57  PHE57      -0.0200
     63  CD1       22.5600   57.1590    5.2800 C.ar   57  PHE57      -0.0042
     64  CD2       21.5390   56.3700    3.2580 C.ar   57  PHE57      -0.0042
     65  CE1       23.7480   57.4050    4.5930 C.ar   57  PHE57      -0.0003
     66  CE2       22.7160   56.6150    2.5580 C.ar   57  PHE57      -0.0003
     67  CZ        23.8250   57.1330    3.2270 C.ar   57  PHE57      -0.0000
     68  N         12.1910   49.5690    9.3180 N.3    71  ARG71      -0.1231
     69  CA        11.5450   50.0870    8.1090 C.3    71  ARG71       0.1694
     70  C         12.3760   49.7900    6.8550 C.2    71  ARG71       0.2591
     71  O         11.8230   49.5390    5.7800 O.2    71  ARG71      -0.2718
     72  CB        11.2360   51.5860    8.2250 C.3    71  ARG71       0.0321
     73  CG        12.3970   52.4980    7.8730 C.3    71  ARG71       0.0489
     74  CD        11.9410   53.8840    7.4190 C.3    71  ARG71       0.2205
     75  NE        12.6080   54.2850    6.1780 N.pl3  71  ARG71      -0.0865
     76  CZ        13.8850   54.6610    6.0710 C.cat  71  ARG71       0.5346
     77  NH1       14.3690   54.9900    4.8820 N.pl3  71  ARG71       0.1354
     78  NH2       14.6820   54.7100    7.1350 N.pl3  71  ARG71       0.1354
     79  N         13.6990   49.8210    6.9950 N.am   72  GLU72      -0.1979
     80  CA        14.5860   49.5260    5.8720 C.3    72  GLU72       0.1602
     81  C         14.5460   48.0360    5.5350 C.2    72  GLU72       0.2287
     82  O         14.4720   47.6660    4.3660 O.2    72  GLU72      -0.2864
     83  CB        16.0090   50.0120    6.1520 C.3    72  GLU72       0.0415
     84  CG        16.1800   51.5250    5.9910 C.3    72  GLU72       0.1163
     85  CD        16.3810   51.9690    4.5430 C.2    72  GLU72       0.3649
     86  OE1       16.3420   53.1870    4.2860 O.co2  72  GLU72      -0.2457
     87  OE2       16.5840   51.1130    3.6590 O.co2  72  GLU72      -0.2457
     88  N         11.4320   47.3410    3.7370 N.3    75  GLU75      -0.1231
     89  CA        11.5870   47.9510    2.4250 C.3    75  GLU75       0.1699
     90  C         12.4200   47.0710    1.5000 C.2    75  GLU75       0.2592
     91  O         12.0660   46.8600    0.3380 O.2    75  GLU75      -0.2718
     92  CB        12.2590   49.3060    2.6030 C.3    75  GLU75       0.0402
     93  CG        12.0030   50.3280    1.5200 C.3    75  GLU75       0.1161
     94  CD        12.3260   51.7290    2.0040 C.2    75  GLU75       0.3649
     95  OE1       11.5890   52.2220    2.8720 O.co2  75  GLU75      -0.2457
     96  OE2       13.3180   52.3310    1.5330 O.co2  75  GLU75      -0.2457
     97  N         13.5210   46.5510    2.0380 N.am   76  GLU76      -0.1979
     98  CA        14.5110   45.8050    1.2650 C.3    76  GLU76       0.1602
     99  C         14.2220   44.3090    1.1970 C.2    76  GLU76       0.2287
    100  O         14.4370   43.6810    0.1610 O.2    76  GLU76      -0.2864
    101  CB        15.9220   46.0570    1.8280 C.3    76  GLU76       0.0415
    102  CG        16.3270   47.5090    1.7280 C.3    76  GLU76       0.1163
    103  CD        17.7860   47.7700    1.9950 C.2    76  GLU76       0.3649
    104  OE1       18.5440   46.8190    2.2860 O.co2  76  GLU76      -0.2457
    105  OE2       18.1710   48.9550    1.9150 O.co2  76  GLU76      -0.2457
    106  N         33.4500   56.7600   10.3330 N.3    97  ARG97      -0.1245
    107  CA        34.4660   57.1610    9.3640 C.3    97  ARG97       0.1563
    108  C         34.2470   58.5960    8.8860 C.2    97  ARG97       0.2260
    109  O         33.1350   59.1260    8.9590 O.2    97  ARG97      -0.2867
    110  CB        34.5360   56.1760    8.1890 C.3    97  ARG97       0.0307
    111  CG        33.5880   56.4660    7.0350 C.3    97  ARG97       0.0489
    112  CD        32.9290   55.2030    6.5470 C.3    97  ARG97       0.2205
    113  NE        31.7850   54.8520    7.3920 N.pl3  97  ARG97      -0.0865
    114  CZ        31.7890   53.9120    8.3360 C.cat  97  ARG97       0.5346
    115  NH1       32.8780   53.1940    8.5760 N.pl3  97  ARG97       0.1354
    116  NH2       30.6920   53.6870    9.0450 N.pl3  97  ARG97       0.1354
    117  N         30.0530   59.2490    8.3230 N.3   103  CYS103     -0.1235
    118  CA        29.0980   58.1450    8.4150 C.3   103  CYS103      0.1677
    119  C         29.3580   57.2510    9.6270 C.2   103  CYS103      0.2270
    120  O         30.4780   56.7800    9.8370 O.2   103  CYS103     -0.2867
    121  CB        29.1260   57.3220    7.1160 C.3   103  CYS103      0.0956
    122  SG        28.0570   55.8310    7.0450 S.3   103  CYS103     -0.0801
    123  N         28.0160   53.6460   11.0560 N.3   105  THR105     -0.1218
    124  CA        27.2650   52.4390   10.7220 C.3   105  THR105      0.1862
    125  C         27.0890   51.5450   11.9400 C.2   105  THR105      0.2287
    126  O         28.0480   51.2630   12.6620 O.2   105  THR105     -0.2866
    127  CB        27.9180   51.6370    9.5840 C.3   105  THR105      0.1770
    128  OG1       29.3300   51.5350    9.8100 O.3   105  THR105     -0.2211
    129  CG2       27.6630   52.3170    8.2520 C.3   105  THR105      0.0375
    130  N         16.9400   48.6800   -5.4010 N.3   133  GLU133     -0.1245
    131  CA        18.0460   48.7140   -4.4510 C.3   133  GLU133      0.1567
    132  C         18.5780   47.3120   -4.2210 C.2   133  GLU133      0.2260
    133  O         19.7780   47.1270   -4.0940 O.2   133  GLU133     -0.2867
    134  CB        17.6580   49.3440   -3.1160 C.3   133  GLU133      0.0388
    135  CG        17.4560   50.8520   -3.1710 C.3   133  GLU133      0.1160
    136  CD        17.5680   51.5180   -1.8050 C.2   133  GLU133      0.3649
    137  OE1       17.6820   50.8090   -0.7790 O.co2 133  GLU133     -0.2457
    138  OE2       17.5560   52.7610   -1.7640 O.co2 133  GLU133     -0.2457
    139  N         30.4320   46.3170   -0.0740 N.3   161  ILE161     -0.1231
    140  CA        30.2220   47.7490    0.1870 C.3   161  ILE161      0.1692
    141  C         30.7910   48.1670    1.5610 C.2   161  ILE161      0.2593
    142  O         30.7500   47.3920    2.5260 O.2   161  ILE161     -0.2718
    143  CB        28.7200   48.1470    0.0490 C.3   161  ILE161      0.0266
    144  CG1       28.5220   49.6640    0.2180 C.3   161  ILE161      0.0019
    145  CG2       27.8580   47.3740    1.0410 C.3   161  ILE161      0.0020
    146  CD1       29.1820   50.5340   -0.8490 C.3   161  ILE161      0.0001
    147  N         31.3360   49.3820    1.6340 N.am  162  GLY162     -0.1942
    148  CA        31.8240   49.9410    2.8900 C.3   162  GLY162      0.2014
    149  C         32.6450   48.9560    3.6980 C.2   162  GLY162      0.2639
    150  O         33.5800   48.3450    3.1840 O.2   162  GLY162     -0.2714
    151  N         32.2820   48.7970    4.9660 N.am  163  ASN163     -0.1958
    152  CA        32.9600   47.8600    5.8590 C.3   163  ASN163      0.1819
    153  C         32.1280   46.5880    6.1040 C.2   163  ASN163      0.2622
    154  O         32.2620   45.9340    7.1450 O.2   163  ASN163     -0.2715
    155  CB        33.3420   48.5540    7.1830 C.3   163  ASN163      0.1195
    156  CG        32.1320   48.8910    8.0570 C.2   163  ASN163      0.2630
    157  OD1       32.2720   49.0800    9.2650 O.2   163  ASN163     -0.2716
    158  ND2       30.9450   48.9620    7.4520 N.am  163  ASN163     -0.0877
    159  N         31.2860   46.2350    5.1350 N.am  164  SER164     -0.1950
    160  CA        30.4140   45.0690    5.2740 C.3   164  SER164      0.1924
    161  C         31.1830   43.7490    5.3870 C.2   164  SER164      0.2314
    162  O         30.6900   42.7840    5.9730 O.2   164  SER164     -0.2863
    163  CB        29.3870   45.0060    4.1370 C.3   164  SER164      0.2116
    164  OG        30.0220   44.8060    2.8900 O.3   164  SER164     -0.2180
    165  N         32.5270   43.6600    8.9310 N.3   167  GLN167     -0.1245
    166  CA        31.3130   43.3140    9.6710 C.3   167  GLN167      0.1566
    167  C         30.9730   41.8200    9.6670 C.2   167  GLN167      0.2260
    168  O         30.5510   41.2730   10.6870 O.2   167  GLN167     -0.2867
    169  CB        30.1360   44.0990    9.0940 C.3   167  GLN167      0.0367
    170  CG        30.0680   45.5310    9.5660 C.3   167  GLN167      0.0905
    171  CD        28.8820   46.2910    9.0030 C.2   167  GLN167      0.2608
    172  OE1       28.1820   45.8120    8.1100 O.2   167  GLN167     -0.2717
    173  NE2       28.6490   47.4880    9.5300 N.am  167  GLN167     -0.0878
@<TRIPOS>BOND
     1    30    29    2
     2    29    28    1
     3    28    31    1
     4    28    27    1
     5    31    32    1
     6    19    18    2
     7    34    32   ar
     8    34    36   ar
     9    32    33   ar
    10    27    18   am
    11    18    17    1
    12    36    37   ar
    13   130   131    1
    14    33    35   ar
    15   131   132    1
    16   131   134    1
    17   132   133    2
    18    17    16    1
    19    17    20    1
    20    37    35   ar
    21    20    21    1
    22   135   134    1
    23   135   136    1
    24    21    22    1
    25   136   138   ar
    26   136   137   ar
    27    23    22    1
    28    23    24    2
    29    26    24    1
    30    24    25    1
    31   146   144    1
    32   139   140    1
    33   143   140    1
    34   143   144    1
    35   143   145    1
    36   100    99    2
    37   140   141    1
    38    91    90    2
    39    99    98    1
    40    98   101    1
    41    98    97    1
    42    90    97   am
    43    90    89    1
    44    93    94    1
    45    93    92    1
    46    96    94   ar
    47   141   147   am
    48   141   142    2
    49   147   148    1
    50   102   101    1
    51   102   103    1
    52   105   103   ar
    53   103   104   ar
    54    94    95   ar
    55    89    92    1
    56    89    88    1
    57    66    67   ar
    58    66    64   ar
    59   164   163    1
    60   148   149    1
    61   150   149    2
    62    67    65   ar
    63    64    62   ar
    64    38    39    1
    65    87    85   ar
    66   149   151   am
    67    41    40    2
    68    52    51    2
    69   163   160    1
    70    40    39    1
    71    86    85   ar
    72    82    81    2
    73    39    42    1
    74    85    84    1
    75    65    63   ar
    76    62    63   ar
    77    62    61    1
    78    77    76    1
    79   151   152    1
    80    15    13   ar
    81    15    14   ar
    82    49    50    1
    83   159   160    1
    84   159   153   am
    85    51    53   am
    86    51    50    1
    87   160   161    1
    88    54    53    1
    89    54    55    1
    90    61    58    1
    91   161   162    2
    92    81    80    1
    93    13    11   ar
    94    57    55   am
    95    57    58    1
    96    71    70    2
    97   152   153    1
    98   152   155    1
    99    14    12   ar
   100    80    83    1
   101    80    79    1
   102    42    43    1
   103    84    83    1
   104    76    75    2
   105    76    78    1
   106   153   154    2
   107    75    74    1
   108    55    56    2
   109    43    44   ar
   110    43    45   ar
   111    58    59    1
   112    44    46   ar
   113    45    47   ar
   114   112   111    1
   115   112   113    1
   116    46    48   ar
   117    11    12   ar
   118    11    10    1
   119    47    48   ar
   120    70    79   am
   121    70    69    1
   122    60    59    2
   123   111   110    1
   124   122   121    1
   125   121   118    1
   126   155   156    1
   127   113   114    2
   128    74    73    1
   129   158   156   am
   130     5     2    1
   131    10     7    1
   132    73    72    1
   133   156   157    2
   134    69    72    1
   135    69    68    1
   136   172   171    2
   137   110   107    1
   138   129   127    1
   139   117   118    1
   140   114   115    1
   141   114   116    1
   142   118   119    1
   143     7     6    1
   144     7     8    1
   145     2     1    1
   146     2     3    1
   147   108   109    2
   148   108   107    1
   149   165   166    1
   150   171   173   am
   151   171   170    1
   152   169   170    1
   153   169   166    1
   154   107   106    1
   155   127   128    1
   156   127   124    1
   157   119   120    2
   158   167   166    1
   159   167   168    2
   160     8     9    2
   161     3     4    2
   162   124   123    1
   163   124   125    1
   164   125   126    2
