@<TRIPOS>MOLECULE
tmp/2a8uA01.pdb
 93 90 0 0 0
SMALL
GASTEIGER

@<TRIPOS>ATOM
      1  N         20.7710   63.3510   37.1010 N.3   151  HIS151     -0.1241
      2  CA        20.0050   63.7370   38.2800 C.3   151  HIS151      0.1621
      3  C         19.6340   65.2110   38.0960 C.2   151  HIS151      0.2264
      4  O         20.4980   66.0470   37.8400 O.2   151  HIS151     -0.2867
      5  CB        20.8700   63.5410   39.5290 C.3   151  HIS151      0.0745
      6  CG        20.1120   63.6340   40.8150 C.ar  151  HIS151      0.0817
      7  ND1       19.4420   64.7740   41.2050 N.ar  151  HIS151     -0.2268
      8  CD2       19.9360   62.7350   41.8120 C.ar  151  HIS151      0.1154
      9  CE1       18.8870   64.5750   42.3870 C.ar  151  HIS151      0.1986
     10  NE2       19.1710   63.3450   42.7780 N.ar  151  HIS151     -0.2212
     11  N         19.0310   67.5650   40.1010 N.3   153  SER153     -0.1202
     12  CA        19.6340   68.5080   41.0350 C.3   153  SER153      0.2020
     13  C         21.1250   68.7520   40.8150 C.2   153  SER153      0.2618
     14  O         21.6960   69.6580   41.4250 O.2   153  SER153     -0.2717
     15  CB        19.4160   68.0320   42.4760 C.3   153  SER153      0.2103
     16  OG        18.0340   67.9670   42.7920 O.3   153  SER153     -0.2182
     17  N         21.7600   67.9670   39.9470 N.am  154  PHE154     -0.1975
     18  CA        23.1960   68.1340   39.7300 C.3   154  PHE154      0.1639
     19  C         23.6750   68.2400   38.2860 C.2   154  PHE154      0.2290
     20  O         24.8800   68.2180   38.0440 O.2   154  PHE154     -0.2864
     21  CB        23.9660   66.9840   40.3830 C.3   154  PHE154      0.0560
     22  CG        23.6610   66.7880   41.8380 C.ar  154  PHE154     -0.0200
     23  CD1       22.5990   65.9830   42.2380 C.ar  154  PHE154     -0.0042
     24  CD2       24.4420   67.4030   42.8110 C.ar  154  PHE154     -0.0042
     25  CE1       22.3190   65.7910   43.5870 C.ar  154  PHE154     -0.0003
     26  CE2       24.1700   67.2180   44.1650 C.ar  154  PHE154     -0.0003
     27  CZ        23.1070   66.4110   44.5530 C.ar  154  PHE154     -0.0000
     28  N         27.1140   64.2850   45.0950 N.3   163  THR163     -0.1218
     29  CA        27.0000   63.5620   46.3550 C.3   163  THR163      0.1862
     30  C         27.4010   62.0900   46.2670 C.2   163  THR163      0.2287
     31  O         26.6820   61.2140   46.7470 O.2   163  THR163     -0.2866
     32  CB        25.5690   63.6600   46.9280 C.3   163  THR163      0.1770
     33  OG1       24.6220   63.2150   45.9490 O.3   163  THR163     -0.2211
     34  CG2       25.2550   65.0980   47.3170 C.3   163  THR163      0.0375
     35  N         26.3550   62.9580   37.6640 N.3   182  TYR182     -0.1241
     36  CA        25.7290   62.3440   38.8180 C.3   182  TYR182      0.1605
     37  C         24.4160   61.7790   38.2780 C.2   182  TYR182      0.2264
     38  O         23.5010   62.5290   37.9090 O.2   182  TYR182     -0.2867
     39  CB        25.4420   63.3480   39.9340 C.3   182  TYR182      0.0534
     40  CG        25.0150   62.6430   41.2030 C.ar  182  TYR182     -0.0201
     41  CD1       25.9490   61.9750   41.9950 C.ar  182  TYR182     -0.0009
     42  CD2       23.6700   62.5560   41.5570 C.ar  182  TYR182     -0.0009
     43  CE1       25.5570   61.2290   43.1040 C.ar  182  TYR182      0.0417
     44  CE2       23.2640   61.8110   42.6680 C.ar  182  TYR182      0.0417
     45  CZ        24.2130   61.1480   43.4330 C.ar  182  TYR182      0.1957
     46  OH        23.8210   60.3840   44.5070 O.3   182  TYR182     -0.2866
     47  N         20.8760   59.6530   38.5400 N.3   184  MET184     -0.1245
     48  CA        19.8680   59.3640   39.5530 C.3   184  MET184      0.1570
     49  C         19.4500   57.9040   39.4340 C.2   184  MET184      0.2261
     50  O         19.2240   57.3990   38.3350 O.2   184  MET184     -0.2867
     51  CB        18.6560   60.2770   39.3920 C.3   184  MET184      0.0387
     52  CG        17.5850   60.0580   40.4530 C.3   184  MET184      0.0595
     53  SD        16.5430   61.5020   40.6620 S.3   184  MET184     -0.1393
     54  CE        16.5160   61.6320   42.4560 C.3   184  MET184      0.0692
     55  N         24.1860   57.3340   49.6390 N.3   218  TRP218     -0.1241
     56  CA        22.9070   57.2970   48.9490 C.3   218  TRP218      0.1605
     57  C         22.5350   55.9090   48.4460 C.2   218  TRP218      0.2264
     58  O         21.9020   55.7510   47.4010 O.2   218  TRP218     -0.2867
     59  CB        22.8700   58.3290   47.8190 C.3   218  TRP218      0.0550
     60  CG        22.7320   59.7240   48.3580 C.ar  218  TRP218      0.0003
     61  CD1       23.6900   60.6950   48.3810 C.ar  218  TRP218      0.0946
     62  CD2       21.5870   60.2740   49.0260 C.ar  218  TRP218      0.0152
     63  NE1       23.2160   61.8150   49.0240 N.ar  218  TRP218     -0.2442
     64  CE2       21.9280   61.5830   49.4300 C.ar  218  TRP218      0.0810
     65  CE3       20.3070   59.7850   49.3240 C.ar  218  TRP218      0.0012
     66  CZ2       21.0350   62.4140   50.1190 C.ar  218  TRP218      0.0191
     67  CZ3       19.4170   60.6120   50.0110 C.ar  218  TRP218      0.0001
     68  CH2       19.7880   61.9110   50.4000 C.ar  218  TRP218      0.0015
     69  N         21.9400   54.1990   44.6950 N.3   221  GLU221     -0.1245
     70  CA        22.3320   55.2710   43.7850 C.3   221  GLU221      0.1567
     71  C         23.8350   55.5260   43.8070 C.2   221  GLU221      0.2260
     72  O         24.4350   55.8720   42.7870 O.2   221  GLU221     -0.2867
     73  CB        21.5940   56.5560   44.1510 C.3   221  GLU221      0.0388
     74  CG        21.8010   57.6840   43.1620 C.3   221  GLU221      0.1160
     75  CD        20.9270   58.8770   43.4620 C.2   221  GLU221      0.3649
     76  OE1       21.2910   59.6830   44.3480 O.co2 221  GLU221     -0.2457
     77  OE2       19.8650   59.0000   42.8160 O.co2 221  GLU221     -0.2457
     78  N          9.5300   71.3110   42.6770 N.3   247  LEU247     -0.1231
     79  CA        10.7880   71.6710   43.3130 C.3   247  LEU247      0.1693
     80  C         11.7790   72.4090   42.4100 C.2   247  LEU247      0.2591
     81  O         12.6070   73.1860   42.8960 O.2   247  LEU247     -0.2718
     82  CB        11.4510   70.4050   43.8590 C.3   247  LEU247      0.0284
     83  CG        12.5430   70.5600   44.9160 C.3   247  LEU247      0.0019
     84  CD1       11.9650   71.2540   46.1430 C.3   247  LEU247      0.0001
     85  CD2       13.0830   69.1890   45.2920 C.3   247  LEU247      0.0001
     86  N         11.6850   72.1850   41.1020 N.am  248  LEU248     -0.1980
     87  CA        12.6260   72.7930   40.1650 C.3   248  LEU248      0.1596
     88  C         12.0460   73.6610   39.0550 C.2   248  LEU248      0.2287
     89  O         12.7970   74.2220   38.2560 O.2   248  LEU248     -0.2864
     90  CB        13.4870   71.6930   39.5390 C.3   248  LEU248      0.0297
     91  CG        14.3220   70.8650   40.5150 C.3   248  LEU248      0.0022
     92  CD1       14.9310   69.6710   39.7920 C.3   248  LEU248      0.0001
     93  CD2       15.4110   71.7390   41.1220 C.3   248  LEU248      0.0001
@<TRIPOS>BOND
     1     1     2    1
     2    35    36    1
     3     4     3    2
     4    38    37    2
     5    20    19    2
     6     3     2    1
     7    89    88    2
     8    37    36    1
     9     2     5    1
    10    19    18    1
    11    50    49    2
    12    47    48    1
    13    36    39    1
    14    88    87    1
    15    51    48    1
    16    51    52    1
    17    49    48    1
    18     5     6    1
    19    90    87    1
    20    90    91    1
    21    18    17    1
    22    18    21    1
    23    92    91    1
    24    39    40    1
    25    17    13   am
    26    11    12    1
    27    87    86    1
    28    21    22    1
    29    52    53    1
    30    91    93    1
    31    53    54    1
    32     6     7   ar
    33     6     8   ar
    34    13    12    1
    35    13    14    2
    36    12    15    1
    37    86    80   am
    38    40    42   ar
    39    40    41   ar
    40     7     9   ar
    41    42    44   ar
    42     8    10   ar
    43    22    23   ar
    44    22    24   ar
    45    41    43   ar
    46    23    25   ar
    47     9    10   ar
    48    80    81    2
    49    80    79    1
    50    15    16    1
    51    44    45   ar
    52    78    79    1
    53    72    71    2
    54    24    26   ar
    55    77    75   ar
    56    43    45   ar
    57    74    75    1
    58    74    73    1
    59    79    82    1
    60    45    46    1
    61    75    76   ar
    62    25    27   ar
    63    70    71    1
    64    70    73    1
    65    70    69    1
    66    82    83    1
    67    26    27   ar
    68    83    85    1
    69    83    84    1
    70    28    29    1
    71    33    32    1
    72    30    29    1
    73    30    31    2
    74    29    32    1
    75    32    34    1
    76    58    57    2
    77    59    60    1
    78    59    56    1
    79    60    61   ar
    80    60    62   ar
    81    61    63   ar
    82    57    56    1
    83    56    55    1
    84    63    64   ar
    85    62    65   ar
    86    62    64   ar
    87    65    67   ar
    88    64    66   ar
    89    67    68   ar
    90    66    68   ar
