@<TRIPOS>MOLECULE
tmp/2a8vC00.pdb
 126 120 0 0 0
SMALL
GASTEIGER

@<TRIPOS>ATOM
      1  N         27.0770    6.7830   -9.0150 N.3    58  LEU58      -0.1245
      2  CA        27.7970    8.0390   -8.8060 C.3    58  LEU58       0.1561
      3  C         29.1690    7.9980   -9.4430 C.2    58  LEU58       0.2260
      4  O         29.7040    6.9260   -9.7310 O.2    58  LEU58      -0.2867
      5  CB        27.9690    8.3490   -7.3080 C.3    58  LEU58       0.0270
      6  CG        26.7120    8.7610   -6.5480 C.3    58  LEU58       0.0019
      7  CD1       26.0190    9.8950   -7.2870 C.3    58  LEU58       0.0001
      8  CD2       25.7690    7.5690   -6.4330 C.3    58  LEU58       0.0001
      9  N         32.1420    8.3520   -8.2900 N.3    60  ASP60      -0.1239
     10  CA        33.0760    7.4840   -7.5920 C.3    60  ASP60       0.1674
     11  C         32.8730    5.9850   -7.7640 C.2    60  ASP60       0.2266
     12  O         33.7580    5.1980   -7.4170 O.2    60  ASP60      -0.2867
     13  CB        33.1050    7.8500   -6.1140 C.3    60  ASP60       0.1410
     14  CG        33.5570    9.2730   -5.8900 C.2    60  ASP60       0.3668
     15  OD1       34.6520    9.6280   -6.3740 O.co2  60  ASP60      -0.2456
     16  OD2       32.8190   10.0360   -5.2360 O.co2  60  ASP60      -0.2456
     17  N         29.9860    4.0680   -6.6030 N.3    62  PHE62      -0.1241
     18  CA        28.9840    3.4440   -5.7490 C.3    62  PHE62       0.1605
     19  C         27.6520    4.0010   -6.2430 C.2    62  PHE62       0.2264
     20  O         27.6280    4.9400   -7.0380 O.2    62  PHE62      -0.2867
     21  CB        29.2100    3.8180   -4.2750 C.3    62  PHE62       0.0534
     22  CG        29.1810    5.3050   -4.0020 C.ar   62  PHE62      -0.0203
     23  CD1       27.9680    5.9850   -3.8820 C.ar   62  PHE62      -0.0042
     24  CD2       30.3680    6.0280   -3.8730 C.ar   62  PHE62      -0.0042
     25  CE1       27.9370    7.3600   -3.6370 C.ar   62  PHE62      -0.0003
     26  CE2       30.3460    7.4140   -3.6270 C.ar   62  PHE62      -0.0003
     27  CZ        29.1340    8.0720   -3.5090 C.ar   62  PHE62      -0.0000
     28  N         23.0230    4.3230   -5.5200 N.3    64  PHE64      -0.1241
     29  CA        21.8690    4.2800   -4.6740 C.3    64  PHE64       0.1605
     30  C         20.6550    3.9430   -5.5290 C.2    64  PHE64       0.2264
     31  O         20.5980    4.3050   -6.7120 O.2    64  PHE64      -0.2867
     32  CB        21.6320    5.6360   -3.9950 C.3    64  PHE64       0.0534
     33  CG        22.6050    5.9510   -2.8900 C.ar   64  PHE64      -0.0203
     34  CD1       22.3320    5.5650   -1.5850 C.ar   64  PHE64      -0.0042
     35  CD2       23.7750    6.6510   -3.1480 C.ar   64  PHE64      -0.0042
     36  CE1       23.2140    5.8810   -0.5380 C.ar   64  PHE64      -0.0003
     37  CE2       24.6610    6.9720   -2.1140 C.ar   64  PHE64      -0.0003
     38  CZ        24.3730    6.5860   -0.8070 C.ar   64  PHE64      -0.0000
     39  N         17.1940    4.8710   -6.1700 N.3    66  ARG66      -0.1245
     40  CA        16.3540    6.0540   -5.9640 C.3    66  ARG66       0.1563
     41  C         14.8800    5.6890   -5.9850 C.2    66  ARG66       0.2260
     42  O         14.5000    4.6110   -6.4310 O.2    66  ARG66      -0.2867
     43  CB        16.5970    7.1060   -7.0670 C.3    66  ARG66       0.0307
     44  CG        18.0520    7.4640   -7.3230 C.3    66  ARG66       0.0489
     45  CD        18.6100    8.3570   -6.2140 C.3    66  ARG66       0.2205
     46  NE        19.9800    8.7520   -6.4910 N.pl3  66  ARG66      -0.0865
     47  CZ        20.8420    9.1580   -5.5640 C.cat  66  ARG66       0.5346
     48  NH1       20.4630    9.2190   -4.2960 N.pl3  66  ARG66       0.1354
     49  NH2       22.0820    9.5020   -5.8980 N.pl3  66  ARG66       0.1354
     50  N         18.3000   12.0790   -4.3020 N.3    74  ALA74      -0.1231
     51  CA        18.7790   11.5700   -3.0180 C.3    74  ALA74       0.1694
     52  C         17.8180   11.7710   -1.8520 C.2    74  ALA74       0.2592
     53  O         17.4680   12.8980   -1.4950 O.2    74  ALA74      -0.2718
     54  CB        20.1220   12.1840   -2.6860 C.3    74  ALA74       0.0304
     55  N         17.3990   10.6550   -1.2640 N.am   75  GLY75      -0.1957
     56  CA        16.4810   10.6920   -0.1400 C.3    75  GLY75       0.1869
     57  C         16.9910    9.8520    1.0140 C.2    75  GLY75       0.2309
     58  O         17.9300    9.0760    0.8540 O.2    75  GLY75      -0.2863
     59  N         17.0660    6.0370    0.4500 N.3    78  ASP78      -0.1239
     60  CA        17.8370    5.5110   -0.6750 C.3    78  ASP78       0.1674
     61  C         18.5520    4.2120   -0.2650 C.2    78  ASP78       0.2266
     62  O         18.9850    4.0600    0.8740 O.2    78  ASP78      -0.2867
     63  CB        18.8620    6.5370   -1.1640 C.3    78  ASP78       0.1410
     64  CG        18.2230    7.6870   -1.9270 C.2    78  ASP78       0.3668
     65  OD1       17.0080    7.6260   -2.1940 O.co2  78  ASP78      -0.2456
     66  OD2       18.9280    8.6620   -2.2550 O.co2  78  ASP78      -0.2456
     67  N         21.7320    1.8840   -0.5110 N.3    80  TYR80      -0.1241
     68  CA        23.1390    1.8650   -0.9340 C.3    80  TYR80       0.1605
     69  C         23.4680    0.5760   -1.6980 C.2    80  TYR80       0.2264
     70  O         22.9750   -0.5010   -1.3730 O.2    80  TYR80      -0.2867
     71  CB        24.0860    1.9720    0.2690 C.3    80  TYR80       0.0534
     72  CG        25.5530    1.8810   -0.0920 C.ar   80  TYR80      -0.0201
     73  CD1       26.2340    2.9810   -0.6160 C.ar   80  TYR80      -0.0009
     74  CD2       26.2560    0.6940    0.0740 C.ar   80  TYR80      -0.0009
     75  CE1       27.5830    2.9050   -0.9560 C.ar   80  TYR80       0.0417
     76  CE2       27.6100    0.5980   -0.2730 C.ar   80  TYR80       0.0417
     77  CZ        28.2620    1.7090   -0.7810 C.ar   80  TYR80       0.1957
     78  OH        29.6010    1.6290   -1.1150 O.3    80  TYR80      -0.2866
     79  N         30.2200   -0.7400   -5.0610 N.3    83  PRO83      -0.2116
     80  CA        30.8590   -0.7680   -6.3840 C.3    83  PRO83       0.1372
     81  C         31.1160   -2.2200   -6.7940 C.2    83  PRO83       0.2244
     82  O         31.1990   -2.5470   -7.9700 O.2    83  PRO83      -0.2868
     83  CB        32.1510    0.0150   -6.1550 C.3    83  PRO83       0.0268
     84  CG        31.7330    1.0290   -5.0960 C.3    83  PRO83       0.0207
     85  CD        30.9370    0.1690   -4.1440 C.3    83  PRO83       0.0892
     86  N         28.0750    3.7660   11.5840 N.3   107  GLY107     -0.1210
     87  CA        28.8760    4.4610   10.5900 C.3   107  GLY107      0.1956
     88  C         28.1290    4.7450    9.2950 C.2   107  GLY107      0.2612
     89  O         28.5080    5.6430    8.5410 O.2   107  GLY107     -0.2717
     90  N         27.0630    3.9870    9.0390 N.am  108  GLU108     -0.1965
     91  CA        26.2620    4.1720    7.8310 C.3   108  GLU108      0.1733
     92  C         24.9640    4.8870    8.1900 C.2   108  GLU108      0.2616
     93  O         24.4650    4.7670    9.3110 O.2   108  GLU108     -0.2715
     94  CB        25.9150    2.8140    7.1920 C.3   108  GLU108      0.0429
     95  CG        27.1100    1.9470    6.8000 C.3   108  GLU108      0.1163
     96  CD        26.7230    0.5030    6.4660 C.2   108  GLU108      0.3649
     97  OE1       25.7180    0.0010    7.0030 O.co2 108  GLU108     -0.2457
     98  OE2       27.4420   -0.1350    5.6780 O.co2 108  GLU108     -0.2457
     99  N         24.4150    5.6270    7.2310 N.am  109  ARG109     -0.1963
    100  CA        23.1400    6.3230    7.4350 C.3   109  ARG109      0.1729
    101  C         22.0150    5.6970    6.6010 C.2   109  ARG109      0.2616
    102  O         20.8370    5.8930    6.8880 O.2   109  ARG109     -0.2715
    103  CB        23.2790    7.8090    7.0550 C.3   109  ARG109      0.0348
    104  CG        24.2400    8.6070    7.9700 C.3   109  ARG109      0.0492
    105  CD        24.3220   10.0970    7.6030 C.3   109  ARG109      0.2205
    106  NE        23.0420   10.7700    7.7580 N.pl3 109  ARG109     -0.0865
    107  CZ        22.5280   11.1940    8.9120 C.cat 109  ARG109      0.5346
    108  NH1       23.1950   11.0250   10.0520 N.pl3 109  ARG109      0.1354
    109  NH2       21.3250   11.7740    8.9260 N.pl3 109  ARG109      0.1354
    110  N         22.3750    4.9330    5.5720 N.am  110  TYR110     -0.1974
    111  CA        21.3690    4.3470    4.6780 C.3   110  TYR110      0.1639
    112  C         21.2960    2.8260    4.6870 C.2   110  TYR110      0.2290
    113  O         22.2610    2.1320    5.0310 O.2   110  TYR110     -0.2864
    114  CB        21.6160    4.8070    3.2240 C.3   110  TYR110      0.0560
    115  CG        21.5940    6.3140    3.0370 C.ar  110  TYR110     -0.0198
    116  CD1       22.7420    7.0880    3.2680 C.ar  110  TYR110     -0.0009
    117  CD2       20.4100    6.9740    2.7150 C.ar  110  TYR110     -0.0009
    118  CE1       22.6960    8.5050    3.1860 C.ar  110  TYR110      0.0417
    119  CE2       20.3500    8.3690    2.6430 C.ar  110  TYR110      0.0417
    120  CZ        21.4970    9.1250    2.8790 C.ar  110  TYR110      0.1957
    121  OH        21.4230   10.4990    2.8230 O.3   110  TYR110     -0.2866
    122  N         21.3130   -0.7920    3.1480 N.3   112  ALA112     -0.1245
    123  CA        22.2110   -1.3530    2.1470 C.3   112  ALA112      0.1562
    124  C         21.6020   -2.5720    1.4470 C.2   112  ALA112      0.2260
    125  O         20.8710   -3.3550    2.0670 O.2   112  ALA112     -0.2867
    126  CB        23.5580   -1.7620    2.8130 C.3   112  ALA112      0.0290
@<TRIPOS>BOND
     1     4     3    2
     2     3     2    1
     3     1     2    1
     4     2     5    1
     5     9    10    1
     6    82    81    2
     7    11    10    1
     8    11    12    2
     9    10    13    1
    10    44    43    1
    11    44    45    1
    12     5     6    1
    13     7     6    1
    14    43    40    1
    15    20    19    2
    16    81    80    1
    17    31    30    2
    18    17    18    1
    19     6     8    1
    20    46    45    1
    21    46    47    2
    22    42    41    2
    23    80    83    1
    24    80    79    1
    25    15    14   ar
    26    19    18    1
    27    39    40    1
    28    83    84    1
    29    13    14    1
    30    41    40    1
    31    49    47    1
    32    14    16   ar
    33    18    21    1
    34    47    48    1
    35    30    29    1
    36    28    29    1
    37    84    85    1
    38    79    85    1
    39    29    32    1
    40    50    51    1
    41    21    22    1
    42    22    23   ar
    43    22    24   ar
    44    32    33    1
    45    23    25   ar
    46    24    26   ar
    47    25    27   ar
    48    26    27   ar
    49    35    33   ar
    50    35    37   ar
    51    51    54    1
    52    51    52    1
    53    33    34   ar
    54    66    64   ar
    55    65    64   ar
    56    37    38   ar
    57    64    63    1
    58    52    53    2
    59    52    55   am
    60    69    70    2
    61    69    68    1
    62    34    36   ar
    63    55    56    1
    64    63    60    1
    65    78    77    1
    66    75    77   ar
    67    75    73   ar
    68    68    67    1
    69    68    71    1
    70    38    36   ar
    71    77    76   ar
    72    60    61    1
    73    60    59    1
    74    73    72   ar
    75    76    74   ar
    76    61    62    2
    77    56    57    1
    78    72    74   ar
    79    72    71    1
    80    58    57    2
    81   124   125    2
    82   124   123    1
    83   123   126    1
    84   123   122    1
    85   119   117   ar
    86   119   120   ar
    87   117   115   ar
    88   121   120    1
    89   120   118   ar
    90   115   114    1
    91   115   116   ar
    92   118   116   ar
    93   114   111    1
    94   111   112    1
    95   111   110    1
    96   112   113    2
    97   110   101   am
    98    98    96   ar
    99    96    95    1
   100    96    97   ar
   101   101   102    2
   102   101   100    1
   103    95    94    1
   104   103   100    1
   105   103   104    1
   106    94    91    1
   107    99   100    1
   108    99    92   am
   109   105   106    1
   110   105   104    1
   111   106   107    2
   112    91    92    1
   113    91    90    1
   114    92    93    2
   115    89    88    2
   116   107   109    1
   117   107   108    1
   118    90    88   am
   119    88    87    1
   120    87    86    1
