@<TRIPOS>MOLECULE
tmp/2a98A00.pdb
 138 126 0 0 0
SMALL
GASTEIGER

@<TRIPOS>ATOM
      1  N         -4.4610   36.0490    3.2370 N.3    62  LYS62      -0.1245
      2  CA        -3.6180   34.9000    2.9790 C.3    62  LYS62       0.1561
      3  C         -4.3760   33.8880    2.1210 C.2    62  LYS62       0.2260
      4  O         -5.5630   33.6190    2.3740 O.2    62  LYS62      -0.2867
      5  CB        -3.1860   34.2700    4.2790 C.3    62  LYS62       0.0271
      6  CG        -2.1140   33.2110    4.0870 C.3    62  LYS62       0.0035
      7  CD        -1.2950   32.9880    5.3690 C.3    62  LYS62       0.0206
      8  CE        -0.2120   34.0250    5.6300 C.3    62  LYS62       0.1093
      9  NZ         0.4360   33.6850    6.9650 N.3    62  LYS62      -0.1314
     10  N         -0.7430   26.4330    4.5080 N.3    67  THR67      -0.1218
     11  CA         0.0870   27.6030    4.7910 C.3    67  THR67       0.1862
     12  C          1.5510   27.2730    5.2250 C.2    67  THR67       0.2287
     13  O          2.3720   28.1740    5.4180 O.2    67  THR67      -0.2866
     14  CB        -0.6150   28.4960    5.8230 C.3    67  THR67       0.1770
     15  OG1       -0.8060   27.7560    7.0400 O.3    67  THR67      -0.2211
     16  CG2       -2.0090   28.9380    5.3010 C.3    67  THR67       0.0375
     17  N          8.1570   25.4780   19.9050 N.3    83  ARG83      -0.1245
     18  CA         8.3890   26.9390   19.9680 C.3    83  ARG83       0.1563
     19  C          7.5790   27.6060   21.0820 C.2    83  ARG83       0.2260
     20  O          6.3670   27.3720   21.1860 O.2    83  ARG83      -0.2867
     21  CB         7.9870   27.5970   18.6380 C.3    83  ARG83       0.0307
     22  CG         8.7240   27.1600   17.3630 C.3    83  ARG83       0.0489
     23  CD         9.6970   28.2310   16.8120 C.3    83  ARG83       0.2205
     24  NE         9.0770   29.5450   16.5490 N.pl3  83  ARG83      -0.0865
     25  CZ         8.6020   29.9770   15.3730 C.cat  83  ARG83       0.5346
     26  NH1        8.6360   29.2080   14.2900 N.pl3  83  ARG83       0.1354
     27  NH2        8.0880   31.1990   15.2810 N.pl3  83  ARG83       0.1354
     28  N          7.1710   31.0950   21.3870 N.3    85  ASP85      -0.1225
     29  CA         6.4810   31.8230   20.3210 C.3    85  ASP85       0.1805
     30  C          5.0310   31.4830   20.1550 C.2    85  ASP85       0.2597
     31  O          4.1360   32.3100   20.3730 O.2    85  ASP85      -0.2718
     32  CB         7.1140   31.4020   18.9910 C.3    85  ASP85       0.1424
     33  CG         8.0260   32.4300   18.4460 C.2    85  ASP85       0.3668
     34  OD1        7.5540   33.5650   18.2500 O.co2  85  ASP85      -0.2456
     35  OD2        9.2150   32.1060   18.2140 O.co2  85  ASP85      -0.2456
     36  N          4.8350   30.2340   19.7350 N.am   86  MET86      -0.1979
     37  CA         3.6170   29.8160   19.0720 C.3    86  MET86       0.1605
     38  C          2.5820   29.2750   20.0420 C.2    86  MET86       0.2287
     39  O          1.3670   29.4300   19.8200 O.2    86  MET86      -0.2864
     40  CB         3.9510   28.8350   17.9460 C.3    86  MET86       0.0413
     41  CG         4.3600   29.5630   16.6560 C.3    86  MET86       0.0598
     42  SD         4.8980   28.5050   15.2880 S.3    86  MET86      -0.1393
     43  CE         5.2130   29.7200   14.0080 C.3    86  MET86       0.0692
     44  N          1.0110   32.5350   21.2790 N.3    89  LYS89      -0.1245
     45  CA         0.1320   33.0700   20.2330 C.3    89  LYS89       0.1561
     46  C         -1.1130   32.2100   20.0820 C.2    89  LYS89       0.2260
     47  O         -2.1480   32.6980   19.6260 O.2    89  LYS89      -0.2867
     48  CB         0.8670   33.2140   18.8880 C.3    89  LYS89       0.0271
     49  CG         1.3810   34.6220   18.6110 C.3    89  LYS89       0.0035
     50  CD         2.5630   34.6310   17.6480 C.3    89  LYS89       0.0206
     51  CE         2.2660   33.8790   16.3480 C.3    89  LYS89       0.1093
     52  NZ         3.1920   34.2450   15.2280 N.3    89  LYS89      -0.1314
     53  N          5.7010   24.0180   14.6920 N.3   110  LYS110     -0.1245
     54  CA         5.1750   24.9370   13.6920 C.3   110  LYS110      0.1561
     55  C          3.9750   24.3750   12.8990 C.2   110  LYS110      0.2260
     56  O          2.9260   25.0450   12.8380 O.2   110  LYS110     -0.2867
     57  CB         6.2780   25.5030   12.7830 C.3   110  LYS110      0.0271
     58  CG         5.7850   26.4100   11.6290 C.3   110  LYS110      0.0035
     59  CD         6.7580   27.5590   11.3090 C.3   110  LYS110      0.0206
     60  CE         6.5060   28.1360    9.9160 C.3   110  LYS110      0.1093
     61  NZ         6.9270   29.5600    9.7500 N.3   110  LYS110     -0.1314
     62  N          0.8670   24.4150   15.0740 N.3   113  TYR113     -0.1227
     63  CA         0.3350   25.7640   15.1680 C.3   113  TYR113      0.1736
     64  C         -0.3400   26.1760   13.8440 C.2   113  TYR113      0.2595
     65  O         -1.5420   26.5250   13.8350 O.2   113  TYR113     -0.2718
     66  CB         1.4430   26.7520   15.5590 C.3   113  TYR113      0.0548
     67  CG         1.0120   28.2010   15.5680 C.ar  113  TYR113     -0.0200
     68  CD1        0.2420   28.7170   16.6340 C.ar  113  TYR113     -0.0009
     69  CD2        1.3890   29.0810   14.5280 C.ar  113  TYR113     -0.0009
     70  CE1       -0.1750   30.0710   16.6680 C.ar  113  TYR113      0.0417
     71  CE2        0.9770   30.4740   14.5460 C.ar  113  TYR113      0.0417
     72  CZ         0.1880   30.9390   15.6230 C.ar  113  TYR113      0.1957
     73  OH        -0.2160   32.2520   15.6710 O.3   113  TYR113     -0.2866
     74  N          0.4170   26.1050   12.7310 N.am  114  MET114     -0.1979
     75  CA        -0.1080   26.5110   11.4070 C.3   114  MET114      0.1605
     76  C         -1.3570   25.7140   11.0950 C.2   114  MET114      0.2287
     77  O         -2.3060   26.2540   10.5440 O.2   114  MET114     -0.2864
     78  CB         0.9210   26.3390   10.2820 C.3   114  MET114      0.0413
     79  CG         2.2030   27.1430   10.4630 C.3   114  MET114      0.0598
     80  SD         1.9690   28.9440   10.5780 S.3   114  MET114     -0.1393
     81  CE         2.0050   29.4410    8.8430 C.3   114  MET114      0.0692
     82  N         -4.2310   27.0650   13.1240 N.3   117  ARG117     -0.1245
     83  CA        -4.6610   28.3670   12.6310 C.3   117  ARG117      0.1563
     84  C         -5.4820   28.3020   11.3460 C.2   117  ARG117      0.2260
     85  O         -6.4480   29.0540   11.2000 O.2   117  ARG117     -0.2867
     86  CB        -3.5320   29.3840   12.5700 C.3   117  ARG117      0.0307
     87  CG        -4.0050   30.5480   13.3840 C.3   117  ARG117      0.0489
     88  CD        -2.9720   31.5430   13.7650 C.3   117  ARG117      0.2205
     89  NE        -2.8300   32.6690   12.8360 N.pl3 117  ARG117     -0.0865
     90  CZ        -3.7530   33.1660   12.0000 C.cat 117  ARG117      0.5346
     91  NH1       -4.9720   32.6480   11.9220 N.pl3 117  ARG117      0.1354
     92  NH2       -3.4390   34.2260   11.2390 N.pl3 117  ARG117      0.1354
     93  N         -8.0610   33.4860    3.8390 N.3   129  ARG129     -0.1245
     94  CA        -8.4520   34.0850    5.0960 C.3   129  ARG129      0.1563
     95  C         -8.0490   35.5540    5.2170 C.2   129  ARG129      0.2260
     96  O         -6.9940   35.9660    4.7460 O.2   129  ARG129     -0.2867
     97  CB        -7.9380   33.2580    6.2570 C.3   129  ARG129      0.0307
     98  CG        -6.4870   33.3730    6.4840 C.3   129  ARG129      0.0489
     99  CD        -6.1350   32.5740    7.6690 C.3   129  ARG129      0.2205
    100  NE        -4.7680   32.7690    8.1270 N.pl3 129  ARG129     -0.0865
    101  CZ        -3.8720   31.7970    8.3770 C.cat 129  ARG129      0.5346
    102  NH1       -4.1730   30.5140    8.1690 N.pl3 129  ARG129      0.1354
    103  NH2       -2.6650   32.1290    8.8510 N.pl3 129  ARG129      0.1354
    104  N         -6.5540   38.7160    6.8560 N.3   131  GLU131     -0.1245
    105  CA        -5.5150   38.8590    7.8400 C.3   131  GLU131      0.1567
    106  C         -5.5260   40.2400    8.4610 C.2   131  GLU131      0.2260
    107  O         -5.1320   40.3980    9.6170 O.2   131  GLU131     -0.2867
    108  CB        -4.1450   38.5860    7.2060 C.3   131  GLU131      0.0388
    109  CG        -3.9130   37.0990    6.8050 C.3   131  GLU131      0.1160
    110  CD        -3.4120   36.2010    7.9530 C.2   131  GLU131      0.3649
    111  OE1       -4.1070   35.9990    8.9660 O.co2 131  GLU131     -0.2457
    112  OE2       -2.3180   35.6490    7.8360 O.co2 131  GLU131     -0.2457
    113  N         -8.4230   35.7550   13.9620 N.3   145  LYS145     -0.1245
    114  CA        -8.0470   34.3920   14.2960 C.3   145  LYS145      0.1561
    115  C         -9.2410   33.4260   14.4170 C.2   145  LYS145      0.2260
    116  O         -9.0570   32.2010   14.3740 O.2   145  LYS145     -0.2867
    117  CB        -7.2290   34.3570   15.6100 C.3   145  LYS145      0.0271
    118  CG        -6.0640   35.3740   15.7500 C.3   145  LYS145      0.0035
    119  CD        -4.8470   35.0540   14.8750 C.3   145  LYS145      0.0206
    120  CE        -3.5970   35.1560   15.7250 C.3   145  LYS145      0.1093
    121  NZ        -2.5010   35.8990   15.0860 N.3   145  LYS145     -0.1314
    122  N          1.6920   30.6530    1.8470 N.3   195  GLY195     -0.1225
    123  CA         2.0230   31.8010    2.6540 C.3   195  GLY195      0.1811
    124  C          1.8960   33.1310    1.9470 C.2   195  GLY195      0.2280
    125  O          2.2530   34.1470    2.5500 O.2   195  GLY195     -0.2866
    126  N          7.9760   34.5110    0.0310 N.3   216  GLY216     -0.1210
    127  CA         8.9940   33.8720    0.8870 C.3   216  GLY216      0.1956
    128  C          8.9560   32.3510    0.9270 C.2   216  GLY216      0.2611
    129  O          9.9170   31.7180    1.3820 O.2   216  GLY216     -0.2717
    130  N          7.8560   31.7440    0.4830 N.am  217  LYS217     -0.1979
    131  CA         7.7380   30.2640    0.4800 C.3   217  LYS217      0.1596
    132  C          7.0120   29.7950   -0.7640 C.2   217  LYS217      0.2287
    133  O          6.1860   28.9050   -0.7020 O.2   217  LYS217     -0.2864
    134  CB         6.9940   29.7460    1.7200 C.3   217  LYS217      0.0298
    135  CG         7.3260   30.4560    2.9830 C.3   217  LYS217      0.0038
    136  CD         7.2340   29.5530    4.1270 C.3   217  LYS217      0.0206
    137  CE         8.5700   29.5040    4.8050 C.3   217  LYS217      0.1093
    138  NZ         8.4930   30.1300    6.1210 N.3   217  LYS217     -0.1314
@<TRIPOS>BOND
     1   132   133    2
     2   132   131    1
     3   126   127    1
     4   131   130    1
     5   131   134    1
     6   130   128   am
     7   127   128    1
     8   128   129    2
     9   134   135    1
    10   122   123    1
    11   124   125    2
    12   124   123    1
    13     3     4    2
    14     3     2    1
    15     2     1    1
    16     2     5    1
    17   135   136    1
    18    93    94    1
    19     6     5    1
    20     6     7    1
    21   136   137    1
    22    10    11    1
    23    96    95    2
    24    11    12    1
    25    11    14    1
    26   137   138    1
    27    94    95    1
    28    94    97    1
    29    12    13    2
    30    16    14    1
    31     7     8    1
    32     8     9    1
    33    14    15    1
    34    97    98    1
    35    98    99    1
    36   109   108    1
    37   109   110    1
    38   104   105    1
    39   108   105    1
    40    99   100    1
    41   112   110   ar
    42   105   106    1
    43   110   111   ar
    44   100   101    2
    45   102   101    1
    46   101   103    1
    47   106   107    2
    48    81    80    1
    49    61    60    1
    50    60    59    1
    51    78    79    1
    52    78    75    1
    53    79    80    1
    54    77    76    2
    55    76    75    1
    56    85    84    2
    57    92    90    1
    58    59    58    1
    59    84    83    1
    60    75    74    1
    61    58    57    1
    62    91    90    1
    63    90    89    2
    64    86    83    1
    65    86    87    1
    66    83    82    1
    67    74    64   am
    68    57    54    1
    69    89    88    1
    70    56    55    2
    71    55    54    1
    72    87    88    1
    73    54    53    1
    74    65    64    2
    75    64    63    1
    76   113   114    1
    77    43    42    1
    78    26    25    1
    79   114   115    1
    80   114   117    1
    81   116   115    2
    82    69    71   ar
    83    69    67   ar
    84    71    72   ar
    85   119   120    1
    86   119   118    1
    87    62    63    1
    88   121   120    1
    89    63    66    1
    90    52    51    1
    91    27    25    1
    92    42    41    1
    93    25    24    2
    94    66    67    1
    95    67    68   ar
    96   117   118    1
    97    72    73    1
    98    72    70   ar
    99    51    50    1
   100    24    23    1
   101    68    70   ar
   102    41    40    1
   103    23    22    1
   104    22    21    1
   105    50    49    1
   106    40    37    1
   107    35    33   ar
   108    34    33   ar
   109    33    32    1
   110    49    48    1
   111    21    18    1
   112    48    45    1
   113    32    29    1
   114    37    36    1
   115    37    38    1
   116    47    46    2
   117    36    30   am
   118    39    38    2
   119    17    18    1
   120    18    19    1
   121    46    45    1
   122    30    29    1
   123    30    31    2
   124    45    44    1
   125    29    28    1
   126    19    20    2
