@<TRIPOS>MOLECULE
tmp/2a9gD00.pdb
 159 150 0 0 0
SMALL
GASTEIGER

@<TRIPOS>ATOM
      1  N         29.2930   54.6210  -24.1200 N.3    36  LEU36      -0.1231
      2  CA        29.7870   55.9360  -24.5510 C.3    36  LEU36       0.1693
      3  C         29.2630   56.4920  -25.8680 C.2    36  LEU36       0.2592
      4  O         29.9490   57.2790  -26.5010 O.2    36  LEU36      -0.2718
      5  CB        31.3160   55.9260  -24.6340 C.3    36  LEU36       0.0284
      6  CG        32.0990   55.1920  -23.5420 C.3    36  LEU36       0.0019
      7  CD1       33.5940   55.3280  -23.8280 C.3    36  LEU36       0.0001
      8  CD2       31.7450   55.7630  -22.1590 C.3    36  LEU36       0.0001
      9  N         28.0670   56.0690  -26.2720 N.am   37  PHE37      -0.1976
     10  CA        27.3730   56.5400  -27.4790 C.3    37  PHE37       0.1639
     11  C         26.0660   57.2870  -27.0420 C.2    37  PHE37       0.2290
     12  O         25.4240   56.8870  -26.0600 O.2    37  PHE37      -0.2864
     13  CB        27.0260   55.3360  -28.3820 C.3    37  PHE37       0.0560
     14  CG        28.0440   55.0720  -29.4590 C.ar   37  PHE37      -0.0200
     15  CD1       27.7610   55.3850  -30.7820 C.ar   37  PHE37      -0.0042
     16  CD2       29.3230   54.6090  -29.1380 C.ar   37  PHE37      -0.0042
     17  CE1       28.7500   55.2540  -31.7760 C.ar   37  PHE37      -0.0003
     18  CE2       30.3090   54.4730  -30.1290 C.ar   37  PHE37      -0.0003
     19  CZ        30.0230   54.7990  -31.4420 C.ar   37  PHE37      -0.0000
     20  N         33.8850   51.8960  -29.4930 N.3   155  ASN155     -0.1240
     21  CA        34.7530   53.0560  -29.5320 C.3   155  ASN155      0.1653
     22  C         36.0900   52.7940  -30.2400 C.2   155  ASN155      0.2266
     23  O         36.9280   53.7090  -30.3630 O.2   155  ASN155     -0.2867
     24  CB        34.9290   53.6080  -28.1090 C.3   155  ASN155      0.1155
     25  CG        33.6050   53.9290  -27.4720 C.2   155  ASN155      0.2627
     26  OD1       32.9860   54.9360  -27.7980 O.2   155  ASN155     -0.2716
     27  ND2       33.1770   53.0890  -26.5220 N.am  155  ASN155     -0.0877
     28  N         37.2680   55.0810  -32.5540 N.3   158  PHE158     -0.1241
     29  CA        38.0830   56.2350  -32.2640 C.3   158  PHE158      0.1605
     30  C         39.5030   55.7960  -31.9730 C.2   158  PHE158      0.2264
     31  O         39.9600   55.6640  -30.8200 O.2   158  PHE158     -0.2867
     32  CB        37.4560   57.0090  -31.1190 C.3   158  PHE158      0.0534
     33  CG        36.0140   57.3080  -31.3590 C.ar  158  PHE158     -0.0203
     34  CD1       35.6520   58.2580  -32.2750 C.ar  158  PHE158     -0.0042
     35  CD2       35.0140   56.6050  -30.6930 C.ar  158  PHE158     -0.0042
     36  CE1       34.2990   58.5270  -32.5260 C.ar  158  PHE158     -0.0003
     37  CE2       33.6790   56.8650  -30.9410 C.ar  158  PHE158     -0.0003
     38  CZ        33.3140   57.8360  -31.8660 C.ar  158  PHE158     -0.0000
     39  N         42.1720   57.3210  -32.3940 N.3   160  ARG160     -0.1231
     40  CA        43.0000   58.3120  -31.7120 C.3   160  ARG160      0.1694
     41  C         43.3620   58.0110  -30.2350 C.2   160  ARG160      0.2592
     42  O         44.5340   58.0660  -29.8250 O.2   160  ARG160     -0.2718
     43  CB        42.2930   59.6570  -31.7710 C.3   160  ARG160      0.0321
     44  CG        42.9780   60.7800  -31.0440 C.3   160  ARG160      0.0489
     45  CD        43.1390   61.9600  -31.9690 C.3   160  ARG160      0.2205
     46  NE        44.5350   62.2220  -32.2720 N.pl3 160  ARG160     -0.0865
     47  CZ        44.9680   62.5090  -33.4830 C.cat 160  ARG160      0.5346
     48  NH1       44.1070   62.5560  -34.4890 N.pl3 160  ARG160      0.1354
     49  NH2       46.2420   62.7820  -33.6860 N.pl3 160  ARG160      0.1354
     50  N         42.3610   57.6650  -29.4480 N.am  161  ASP161     -0.1974
     51  CA        42.5640   57.4310  -28.0310 C.3   161  ASP161      0.1709
     52  C         43.2860   56.1430  -27.5960 C.2   161  ASP161      0.2293
     53  O         44.1730   56.1880  -26.7170 O.2   161  ASP161     -0.2864
     54  CB        41.2060   57.5450  -27.3380 C.3   161  ASP161      0.1436
     55  CG        40.4010   58.7620  -27.8300 C.2   161  ASP161      0.3671
     56  OD1       40.9640   59.8860  -27.8960 O.co2 161  ASP161     -0.2456
     57  OD2       39.2060   58.5960  -28.1590 O.co2 161  ASP161     -0.2456
     58  N         37.7320   54.5720  -19.1190 N.3   177  TRP177     -0.1241
     59  CA        36.4840   53.8370  -18.8860 C.3   177  TRP177      0.1605
     60  C         36.5780   52.3440  -19.1880 C.2   177  TRP177      0.2264
     61  O         36.9670   51.9400  -20.2810 O.2   177  TRP177     -0.2867
     62  CB        35.3540   54.3890  -19.7700 C.3   177  TRP177      0.0550
     63  CG        34.8750   55.7790  -19.4670 C.ar  177  TRP177      0.0003
     64  CD1       34.8190   56.8320  -20.3300 C.ar  177  TRP177      0.0946
     65  CD2       34.3020   56.2410  -18.2370 C.ar  177  TRP177      0.0152
     66  NE1       34.2410   57.9180  -19.7160 N.ar  177  TRP177     -0.2442
     67  CE2       33.9130   57.5770  -18.4320 C.ar  177  TRP177      0.0810
     68  CE3       34.0750   55.6490  -16.9900 C.ar  177  TRP177      0.0012
     69  CZ2       33.3200   58.3320  -17.4260 C.ar  177  TRP177      0.0191
     70  CZ3       33.4900   56.4030  -15.9930 C.ar  177  TRP177      0.0001
     71  CH2       33.1170   57.7250  -16.2150 C.ar  177  TRP177      0.0015
     72  N         36.3470   50.6540  -22.4310 N.3   180  ARG180     -0.1245
     73  CA        37.3080   50.7740  -23.5110 C.3   180  ARG180      0.1563
     74  C         38.6230   50.0580  -23.1910 C.2   180  ARG180      0.2260
     75  O         39.4300   49.7960  -24.0720 O.2   180  ARG180     -0.2867
     76  CB        37.5950   52.2520  -23.8350 C.3   180  ARG180      0.0307
     77  CG        36.3990   53.0440  -24.3960 C.3   180  ARG180      0.0489
     78  CD        36.8420   54.3110  -25.1290 C.3   180  ARG180      0.2205
     79  NE        37.6700   53.9730  -26.2860 N.pl3 180  ARG180     -0.0865
     80  CZ        38.1660   54.8330  -27.1830 C.cat 180  ARG180      0.5346
     81  NH1       37.9510   56.1390  -27.1170 N.pl3 180  ARG180      0.1354
     82  NH2       38.8860   54.3710  -28.1810 N.pl3 180  ARG180      0.1354
     83  N         43.4850   61.1320  -27.4550 N.3   221  GLY221     -0.1225
     84  CA        42.8550   62.4370  -27.6530 C.3   221  GLY221      0.1811
     85  C         43.4100   63.5720  -26.7950 C.2   221  GLY221      0.2280
     86  O         43.1610   64.7370  -27.0670 O.2   221  GLY221     -0.2866
     87  N         40.4750   62.1600  -18.7710 N.3   238  ARG238     -0.1245
     88  CA        40.7590   60.7610  -19.1460 C.3   238  ARG238      0.1563
     89  C         42.2080   60.3680  -18.8070 C.2   238  ARG238      0.2260
     90  O         42.5080   59.2000  -18.5780 O.2   238  ARG238     -0.2867
     91  CB        40.5850   60.5390  -20.6530 C.3   238  ARG238      0.0307
     92  CG        39.4480   61.2680  -21.3330 C.3   238  ARG238      0.0489
     93  CD        38.0900   60.6290  -21.0510 C.3   238  ARG238      0.2205
     94  NE        37.9580   59.2670  -21.5630 N.pl3 238  ARG238     -0.0865
     95  CZ        36.9580   58.8410  -22.3420 C.cat 238  ARG238      0.5346
     96  NH1       35.9870   59.6810  -22.7170 N.pl3 238  ARG238      0.1354
     97  NH2       36.9270   57.5640  -22.7400 N.pl3 238  ARG238      0.1354
     98  N         33.4140   63.1930  -18.6170 N.3   271  ALA271     -0.1245
     99  CA        34.6030   62.8960  -19.4470 C.3   271  ALA271      0.1562
    100  C         35.2320   64.1580  -20.0810 C.2   271  ALA271      0.2260
    101  O         35.3900   65.1930  -19.4340 O.2   271  ALA271     -0.2867
    102  CB        34.2260   61.9150  -20.5470 C.3   271  ALA271      0.0290
    103  N         37.9450   64.9270  -23.5920 N.3   273  HIS273     -0.1241
    104  CA        39.3490   64.9820  -24.0380 C.3   273  HIS273      0.1621
    105  C         39.7680   66.3580  -24.4850 C.2   273  HIS273      0.2264
    106  O         38.9360   67.2190  -24.7830 O.2   273  HIS273     -0.2867
    107  CB        39.6170   64.1130  -25.2310 C.3   273  HIS273      0.0745
    108  CG        39.3730   62.5970  -25.1090 C.ar  273  HIS273      0.0817
    109  ND1       38.1310   62.0280  -25.2630 N.ar  273  HIS273     -0.2268
    110  CD2       40.2360   61.5730  -24.9150 C.ar  273  HIS273      0.1154
    111  CE1       38.2410   60.7110  -25.1950 C.ar  273  HIS273      0.1986
    112  NE2       39.5100   60.4060  -24.9860 N.ar  273  HIS273     -0.2212
    113  N         41.3170   67.1860  -27.2110 N.3   275  ASP275     -0.1225
    114  CA        41.0770   67.4900  -28.6040 C.3   275  ASP275      0.1805
    115  C         39.6340   67.8010  -28.8920 C.2   275  ASP275      0.2598
    116  O         39.2840   68.0280  -30.0580 O.2   275  ASP275     -0.2718
    117  CB        41.5390   66.3510  -29.5030 C.3   275  ASP275      0.1424
    118  CG        40.7580   65.0760  -29.2830 C.2   275  ASP275      0.3668
    119  OD1       39.7780   65.0850  -28.5030 O.co2 275  ASP275     -0.2456
    120  OD2       41.1350   64.0650  -29.9160 O.co2 275  ASP275     -0.2456
    121  N         38.7930   67.8170  -27.8530 N.am  276  THR276     -0.1953
    122  CA        37.3890   68.1270  -28.0790 C.3   276  THR276      0.1897
    123  C         37.1360   69.6110  -27.8550 C.2   276  THR276      0.2313
    124  O         36.1420   70.1410  -28.3810 O.2   276  THR276     -0.2863
    125  CB        36.4570   67.3560  -27.1560 C.3   276  THR276      0.1794
    126  OG1       36.6290   67.8380  -25.8190 O.3   276  THR276     -0.2208
    127  CG2       36.7520   65.8560  -27.2280 C.3   276  THR276      0.0378
    128  N         37.7470   69.4100  -33.1470 N.3   349  ASN349     -0.1240
    129  CA        37.9900   67.9400  -33.3420 C.3   349  ASN349      0.1653
    130  C         38.1870   67.6930  -34.8330 C.2   349  ASN349      0.2266
    131  O         38.0110   66.5810  -35.3010 O.2   349  ASN349     -0.2867
    132  CB        36.9310   66.9560  -32.8030 C.3   349  ASN349      0.1155
    133  CG        37.5380   65.6030  -32.3720 C.2   349  ASN349      0.2627
    134  OD1       37.2050   64.5410  -32.9220 O.2   349  ASN349     -0.2716
    135  ND2       38.4320   65.6450  -31.3830 N.am  349  ASN349     -0.0877
    136  N         28.4020   59.2120  -31.6330 N.3   389  GLY389     -0.1210
    137  CA        29.4330   58.5260  -30.8970 C.3   389  GLY389      0.1956
    138  C         30.3200   59.4850  -30.1270 C.2   389  GLY389      0.2612
    139  O         31.2840   59.0590  -29.4930 O.2   389  GLY389     -0.2717
    140  N         30.0250   60.7760  -30.1820 N.am  390  ARG390     -0.1965
    141  CA        30.8180   61.7640  -29.4480 C.3   390  ARG390      0.1729
    142  C         32.2280   61.9330  -29.9840 C.2   390  ARG390      0.2616
    143  O         33.1820   61.9730  -29.2020 O.2   390  ARG390     -0.2715
    144  CB        30.9090   61.3930  -27.9580 C.3   390  ARG390      0.0348
    145  CG        29.6260   61.5960  -27.1710 C.3   390  ARG390      0.0492
    146  CD        29.5530   60.7590  -25.8680 C.3   390  ARG390      0.2205
    147  NE        28.1510   60.5730  -25.5210 N.pl3 390  ARG390     -0.0865
    148  CZ        27.6830   59.8810  -24.4850 C.cat 390  ARG390      0.5346
    149  NH1       28.5050   59.2770  -23.6360 N.pl3 390  ARG390      0.1354
    150  NH2       26.3650   59.7810  -24.3070 N.pl3 390  ARG390      0.1354
    151  N         32.3640   62.0430  -31.3000 N.am  391  GLY391     -0.1955
    152  CA        33.6870   62.2030  -31.8640 C.3   391  GLY391      0.1869
    153  C         33.6950   62.7680  -33.2660 C.2   391  GLY391      0.2309
    154  O         32.7320   62.5980  -34.0160 O.2   391  GLY391     -0.2863
    155  N         39.0910   62.5560  -33.6100 N.3   395  ALA395     -0.1245
    156  CA        38.7900   61.4170  -32.7770 C.3   395  ALA395      0.1562
    157  C         38.8470   60.0980  -33.5380 C.2   395  ALA395      0.2260
    158  O         39.1690   59.0380  -32.9530 O.2   395  ALA395     -0.2867
    159  CB        37.3940   61.6080  -32.1370 C.3   395  ALA395      0.0290
@<TRIPOS>BOND
     1   131   130    2
     2   130   129    1
     3    48    47    1
     4   154   153    2
     5    49    47    1
     6   155   156    1
     7   157   158    2
     8   157   156    1
     9    47    46    2
    10   129   128    1
    11   129   132    1
    12   153   152    1
    13   134   133    2
    14   132   133    1
    15   156   159    1
    16    28    29    1
    17    36    34   ar
    18    36    38   ar
    19    39    40    1
    20   133   135   am
    21    34    33   ar
    22    46    45    1
    23    29    30    1
    24    29    32    1
    25    30    31    2
    26    45    44    1
    27    38    37   ar
    28   152   151    1
    29    17    19   ar
    30    17    15   ar
    31    43    40    1
    32    43    44    1
    33    40    41    1
    34   136   137    1
    35    19    18   ar
    36    33    32    1
    37    33    35   ar
    38   151   142   am
    39    37    35   ar
    40   137   138    1
    41    15    14   ar
    42    23    22    2
    43    22    21    1
    44    41    42    2
    45    41    50   am
    46   140   138   am
    47   140   141    1
    48    18    16   ar
    49   138   139    2
    50   116   115    2
    51   142   141    1
    52   142   143    2
    53   120   118   ar
    54    21    20    1
    55    21    24    1
    56   117   118    1
    57   117   114    1
    58    14    16   ar
    59    14    13    1
    60   141   144    1
    61    50    51    1
    62   118   119   ar
    63   115   114    1
    64   115   121   am
    65   114   113    1
    66    13    10    1
    67   124   123    2
    68    82    80    1
    69    57    55   ar
    70    24    25    1
    71   122   123    1
    72   122   121    1
    73   122   125    1
    74    51    52    1
    75    51    54    1
    76   144   145    1
    77    56    55   ar
    78    55    54    1
    79    26    25    2
    80    84    83    1
    81    84    85    1
    82    52    53    2
    83    10    11    1
    84    10     9    1
    85    25    27   am
    86   127   125    1
    87    80    81    1
    88    80    79    2
    89   145   146    1
    90   125   126    1
    91    86    85    2
    92    11    12    2
    93     4     3    2
    94    79    78    1
    95     9     3   am
    96   146   147    1
    97     3     2    1
    98   147   148    2
    99   109   111   ar
   100   109   108   ar
   101   107   108    1
   102   107   104    1
   103   111   112   ar
   104    78    77    1
   105   108   110   ar
   106   112   110   ar
   107   106   105    2
   108     5     2    1
   109     5     6    1
   110     2     1    1
   111   105   104    1
   112   148   150    1
   113   148   149    1
   114    77    76    1
   115    75    74    2
   116   104   103    1
   117    76    73    1
   118     7     6    1
   119     6     8    1
   120    73    74    1
   121    73    72    1
   122    97    95    1
   123    96    95    1
   124    95    94    2
   125    94    93    1
   126    92    93    1
   127    92    91    1
   128    91    88    1
   129   102    99    1
   130    64    66   ar
   131    64    63   ar
   132    61    60    2
   133   100    99    1
   134   100   101    2
   135    62    63    1
   136    62    59    1
   137    66    67   ar
   138    63    65   ar
   139    99    98    1
   140    60    59    1
   141    88    89    1
   142    88    87    1
   143    58    59    1
   144    89    90    2
   145    67    65   ar
   146    67    69   ar
   147    65    68   ar
   148    69    71   ar
   149    68    70   ar
   150    71    70   ar
