@<TRIPOS>MOLECULE
tmp/2a9kA00.pdb
 170 165 0 0 0
SMALL
GASTEIGER

@<TRIPOS>ATOM
      1  N         10.7970    8.6140   16.0440 N.3    11  GLY11      -0.1210
      2  CA        12.1370    9.0450   16.4060 C.3    11  GLY11       0.1956
      3  C         12.7340    8.0550   17.3860 C.2    11  GLY11       0.2612
      4  O         12.0520    7.6080   18.3080 O.2    11  GLY11      -0.2717
      5  N         13.9910    7.6740   17.1620 N.am   12  GLY12      -0.1942
      6  CA        14.7250    6.8740   18.1430 C.3    12  GLY12       0.2014
      7  C         14.5470    5.3640   18.0450 C.2    12  GLY12       0.2639
      8  O         15.0090    4.6300   18.9210 O.2    12  GLY12      -0.2714
      9  N         13.9000    4.8880   16.9890 N.am   13  VAL13      -0.1963
     10  CA        13.6790    3.4370   16.8470 C.3    13  VAL13       0.1727
     11  C         14.9030    2.6830   16.3240 C.2    13  VAL13       0.2617
     12  O         15.0330    1.4820   16.5600 O.2    13  VAL13      -0.2715
     13  CB        12.4300    3.0880   15.9910 C.3    13  VAL13       0.0290
     14  CG1       11.1460    3.5510   16.6930 C.3    13  VAL13       0.0023
     15  CG2       12.5260    3.6690   14.5650 C.3    13  VAL13       0.0023
     16  N         15.7730    3.3920   15.6040 N.am   14  GLY14      -0.1940
     17  CA        16.9930    2.8180   15.0370 C.3    14  GLY14       0.2014
     18  C         17.0910    2.8910   13.5190 C.2    14  GLY14       0.2639
     19  O         17.8560    2.1350   12.9300 O.2    14  GLY14      -0.2714
     20  N         16.3520    3.7990   12.8800 N.am   15  LYS15      -0.1963
     21  CA        16.4250    3.9200   11.4080 C.3    15  LYS15       0.1728
     22  C         17.8620    4.2050   10.9510 C.2    15  LYS15       0.2617
     23  O         18.3760    3.5450   10.0380 O.2    15  LYS15      -0.2715
     24  CB        15.4820    5.0030   10.8700 C.3    15  LYS15       0.0311
     25  CG        13.9860    4.7780   11.1760 C.3    15  LYS15       0.0038
     26  CD        13.1170    5.9180   10.6160 C.3    15  LYS15       0.0206
     27  CE        13.3540    7.2570   11.3350 C.3    15  LYS15       0.1093
     28  NZ        13.1160    7.2490   12.8290 N.3    15  LYS15      -0.1314
     29  N         18.4990    5.1860   11.5930 N.am   16  SER16      -0.1936
     30  CA        19.8620    5.5890   11.2440 C.3    16  SER16       0.2055
     31  C         20.8750    4.4950   11.5600 C.2    16  SER16       0.2642
     32  O         21.7460    4.1950   10.7340 O.2    16  SER16      -0.2714
     33  CB        20.2540    6.8700   11.9900 C.3    16  SER16       0.2130
     34  OG        19.5140    7.9850   11.5240 O.3    16  SER16      -0.2179
     35  N         20.7790    3.9300   12.7680 N.am   17  ALA17      -0.1977
     36  CA        21.6740    2.8510   13.1820 C.3    17  ALA17       0.1597
     37  C         21.5620    1.6470   12.2440 C.2    17  ALA17       0.2287
     38  O         22.5760    1.0740   11.8410 O.2    17  ALA17      -0.2864
     39  CB        21.4070    2.4530   14.6250 C.3    17  ALA17       0.0319
     40  N         28.2790    0.0260   14.1530 N.3    27  PHE27      -0.1227
     41  CA        27.1830    0.4670   15.0040 C.3    27  PHE27       0.1736
     42  C         27.4090    1.9130   15.4400 C.2    27  PHE27       0.2595
     43  O         28.3170    2.2080   16.2170 O.2    27  PHE27      -0.2718
     44  CB        26.9920   -0.4730   16.2020 C.3    27  PHE27       0.0547
     45  CG        25.8990   -0.0490   17.1510 C.ar   27  PHE27      -0.0202
     46  CD1       24.6460    0.3360   16.6820 C.ar   27  PHE27      -0.0042
     47  CD2       26.1230   -0.0660   18.5280 C.ar   27  PHE27      -0.0042
     48  CE1       23.6380    0.7170   17.5620 C.ar   27  PHE27      -0.0003
     49  CE2       25.1190    0.3060   19.4170 C.ar   27  PHE27      -0.0003
     50  CZ        23.8790    0.7060   18.9380 C.ar   27  PHE27      -0.0000
     51  N         26.5750    2.8050   14.9080 N.am   28  VAL28      -0.1966
     52  CA        26.6810    4.2390   15.1500 C.3    28  VAL28       0.1727
     53  C         25.6090    4.6740   16.1460 C.2    28  VAL28       0.2616
     54  O         24.4100    4.6150   15.8630 O.2    28  VAL28      -0.2715
     55  CB        26.5690    5.0450   13.8270 C.3    28  VAL28       0.0290
     56  CG1       26.6300    6.5500   14.0860 C.3    28  VAL28       0.0023
     57  CG2       27.6800    4.6480   12.8800 C.3    28  VAL28       0.0023
     58  N         26.0630    5.1080   17.3190 N.am   29  GLU29      -0.1963
     59  CA        25.1650    5.4580   18.4090 C.3    29  GLU29       0.1733
     60  C         24.8410    6.9420   18.4090 C.2    29  GLU29       0.2616
     61  O         25.6770    7.7680   18.0580 O.2    29  GLU29      -0.2715
     62  CB        25.7620    5.0220   19.7470 C.3    29  GLU29       0.0429
     63  CG        26.0980    3.5460   19.7530 C.3    29  GLU29       0.1163
     64  CD        26.7250    3.0750   21.0330 C.2    29  GLU29       0.3649
     65  OE1       26.0440    3.0920   22.0790 O.co2  29  GLU29      -0.2457
     66  OE2       27.8990    2.6590   20.9840 O.co2  29  GLU29      -0.2457
     67  N         23.6070    7.2660   18.7740 N.am   30  ASP30      -0.1957
     68  CA        23.1410    8.6540   18.8090 C.3    30  ASP30       0.1840
     69  C         23.4880    9.5170   17.5750 C.2    30  ASP30       0.2622
     70  O         23.9480   10.6480   17.7170 O.2    30  ASP30      -0.2715
     71  CB        23.6330    9.3150   20.0980 C.3    30  ASP30       0.1450
     72  CG        23.2220    8.5380   21.3280 C.2    30  ASP30       0.3671
     73  OD1       22.0090    8.2670   21.4610 O.co2  30  ASP30      -0.2456
     74  OD2       24.1000    8.1770   22.1480 O.co2  30  ASP30      -0.2456
     75  N         23.2500    8.9860   16.3720 N.am   31  TYR31      -0.1974
     76  CA        23.3400    9.7920   15.1490 C.3    31  TYR31       0.1639
     77  C         22.3070   10.9150   15.2710 C.2    31  TYR31       0.2290
     78  O         21.2080   10.6890   15.7860 O.2    31  TYR31      -0.2864
     79  CB        23.0760    8.9190   13.9110 C.3    31  TYR31       0.0560
     80  CG        23.1020    9.6230   12.5570 C.ar   31  TYR31      -0.0198
     81  CD1       24.2930    9.7780   11.8400 C.ar   31  TYR31      -0.0009
     82  CD2       21.9270   10.1010   11.9780 C.ar   31  TYR31      -0.0009
     83  CE1       24.3100   10.4130   10.5810 C.ar   31  TYR31       0.0417
     84  CE2       21.9340   10.7340   10.7280 C.ar   31  TYR31       0.0417
     85  CZ        23.1240   10.8870   10.0390 C.ar   31  TYR31       0.1957
     86  OH        23.1030   11.5060    8.8020 O.3    31  TYR31      -0.2866
     87  N         19.4690   13.0540   15.6770 N.3    33  PRO33      -0.2116
     88  CA        18.0610   12.6680   15.5080 C.3    33  PRO33       0.1372
     89  C         17.3290   13.3690   14.3560 C.2    33  PRO33       0.2244
     90  O         16.5690   12.7240   13.6470 O.2    33  PRO33      -0.2868
     91  CB        17.4330   13.0320   16.8540 C.3    33  PRO33       0.0268
     92  CG        18.5560   12.8690   17.8190 C.3    33  PRO33       0.0207
     93  CD        19.7580   13.4170   17.0800 C.3    33  PRO33       0.0892
     94  N         17.2390    7.5550    4.6270 N.3    56  ASP56      -0.1225
     95  CA        17.0920    7.5240    6.0870 C.3    56  ASP56       0.1805
     96  C         16.4200    8.8240    6.5100 C.2    56  ASP56       0.2598
     97  O         17.0790    9.8680    6.6570 O.2    56  ASP56      -0.2718
     98  CB        18.4720    7.3830    6.7440 C.3    56  ASP56       0.1424
     99  CG        18.4240    7.4440    8.2690 C.2    56  ASP56       0.3668
    100  OD1       17.3900    7.0810    8.8740 O.co2  56  ASP56      -0.2456
    101  OD2       19.4360    7.8700    8.8620 O.co2  56  ASP56      -0.2456
    102  N         15.1060    8.7710    6.6970 N.am   57  THR57      -0.1953
    103  CA        14.3550    9.9840    7.0120 C.3    57  THR57       0.1897
    104  C         14.6040   10.4020    8.4460 C.2    57  THR57       0.2313
    105  O         14.8100    9.5630    9.3230 O.2    57  THR57      -0.2863
    106  CB        12.8370    9.8100    6.8470 C.3    57  THR57       0.1794
    107  OG1       12.3760    8.7660    7.7100 O.3    57  THR57      -0.2208
    108  CG2       12.4780    9.4690    5.4130 C.3    57  THR57       0.0378
    109  N         10.9840   14.8280   11.5980 N.3    60  GLN60      -0.1245
    110  CA        10.4620   15.8540   12.5160 C.3    60  GLN60       0.1566
    111  C          9.9450   17.1030   11.8020 C.2    60  GLN60       0.2260
    112  O          9.1420   17.8460   12.3580 O.2    60  GLN60      -0.2867
    113  CB        11.4980   16.2500   13.5900 C.3    60  GLN60       0.0367
    114  CG        12.0390   15.0960   14.4340 C.3    60  GLN60       0.0905
    115  CD        13.1940   14.3400   13.7780 C.2    60  GLN60       0.2608
    116  OE1       13.5620   14.5930   12.6230 O.2    60  GLN60      -0.2717
    117  NE2       13.7680   13.4060   14.5200 N.am   60  GLN60      -0.0878
    118  N         13.0590   -3.4710   15.9280 N.3   115  ASN115     -0.1225
    119  CA        14.4840   -3.2600   16.1870 C.3   115  ASN115      0.1785
    120  C         14.8140   -3.2860   17.6750 C.2   115  ASN115      0.2597
    121  O         13.9160   -3.2500   18.5170 O.2   115  ASN115     -0.2718
    122  CB        14.9830   -1.9590   15.5460 C.3   115  ASN115      0.1169
    123  CG        16.4970   -1.8190   15.6120 C.2   115  ASN115      0.2627
    124  OD1       17.2330   -2.7640   15.3230 O.2   115  ASN115     -0.2716
    125  ND2       16.9670   -0.6410   15.9990 N.am  115  ASN115     -0.0877
    126  N         16.1100   -3.3470   17.9740 N.am  116  LYS116     -0.1980
    127  CA        16.6550   -3.4100   19.3470 C.3   116  LYS116      0.1596
    128  C         16.3920   -4.7630   20.0030 C.2   116  LYS116      0.2287
    129  O         16.0740   -4.8280   21.1920 O.2   116  LYS116     -0.2864
    130  CB        16.1590   -2.2410   20.2300 C.3   116  LYS116      0.0298
    131  CG        16.2900   -0.8560   19.5860 C.3   116  LYS116      0.0038
    132  CD        16.2150    0.2770   20.6170 C.3   116  LYS116      0.0206
    133  CE        16.2270    1.6390   19.9250 C.3   116  LYS116      0.1093
    134  NZ        16.3020    2.7460   20.9190 N.3   116  LYS116     -0.1314
    135  N         18.4250   -6.9430   20.8970 N.3   118  ASP118     -0.1225
    136  CA        19.3900   -7.1840   21.9730 C.3   118  ASP118      0.1805
    137  C         18.8650   -6.7300   23.3290 C.2   118  ASP118      0.2597
    138  O         19.4210   -7.0830   24.3670 O.2   118  ASP118     -0.2718
    139  CB        20.7270   -6.4960   21.6700 C.3   118  ASP118      0.1424
    140  CG        20.5850   -4.9960   21.5040 C.2   118  ASP118      0.3668
    141  OD1       20.0600   -4.5710   20.4570 O.co2 118  ASP118     -0.2456
    142  OD2       21.0000   -4.2460   22.4120 O.co2 118  ASP118     -0.2456
    143  N         17.7900   -5.9490   23.3150 N.am  119  LEU119     -0.1979
    144  CA        17.2150   -5.3960   24.5340 C.3   119  LEU119      0.1596
    145  C         15.9930   -6.1860   25.0010 C.2   119  LEU119      0.2287
    146  O         15.0000   -5.6130   25.4570 O.2   119  LEU119     -0.2864
    147  CB        16.8810   -3.9060   24.3440 C.3   119  LEU119      0.0297
    148  CG        18.0530   -2.9770   24.0290 C.3   119  LEU119      0.0022
    149  CD1       17.5870   -1.5200   23.9020 C.3   119  LEU119      0.0001
    150  CD2       19.1560   -3.1150   25.0800 C.3   119  LEU119      0.0001
    151  N         18.7160   -6.1140   15.2600 N.3   145  SER145     -0.1202
    152  CA        19.5130   -5.2790   16.1530 C.3   145  SER145      0.2020
    153  C         20.6320   -4.6340   15.3610 C.2   145  SER145      0.2619
    154  O         21.4840   -5.3250   14.8240 O.2   145  SER145     -0.2717
    155  CB        20.0980   -6.0930   17.3060 C.3   145  SER145      0.2103
    156  OG        20.9730   -5.2970   18.0930 O.3   145  SER145     -0.2182
    157  N         20.6200   -3.3060   15.2800 N.am  146  ALA146     -0.1965
    158  CA        21.7250   -2.5740   14.6660 C.3   146  ALA146      0.1728
    159  C         22.9950   -2.6660   15.5160 C.2   146  ALA146      0.2616
    160  O         24.0970   -2.4410   15.0130 O.2   146  ALA146     -0.2715
    161  CB        21.3370   -1.1120   14.4150 C.3   146  ALA146      0.0334
    162  N         22.8350   -3.0100   16.7950 N.am  147  LYS147     -0.1977
    163  CA        23.9630   -3.1800   17.7010 C.3   147  LYS147      0.1596
    164  C         24.7190   -4.4900   17.4570 C.2   147  LYS147      0.2287
    165  O         25.9480   -4.4990   17.4460 O.2   147  LYS147     -0.2864
    166  CB        23.5120   -3.0890   19.1640 C.3   147  LYS147      0.0298
    167  CG        24.6500   -3.2830   20.1670 C.3   147  LYS147      0.0038
    168  CD        24.2300   -2.9050   21.5670 C.3   147  LYS147      0.0206
    169  CE        25.2770   -3.3370   22.5700 C.3   147  LYS147      0.1093
    170  NZ        25.0580   -2.6900   23.8840 N.3   147  LYS147     -0.1314
@<TRIPOS>BOND
     1    94    95    1
     2   108   106    1
     3    95    96    1
     4    95    98    1
     5    96    97    2
     6    96   102   am
     7   102   103    1
     8    98    99    1
     9   106   103    1
    10   106   107    1
    11   103   104    1
    12    99   101   ar
    13    99   100   ar
    14   104   105    2
    15    86    85    1
    16    23    22    2
    17    85    83   ar
    18    85    84   ar
    19    83    81   ar
    20    26    25    1
    21    26    27    1
    22    84    82   ar
    23    32    31    2
    24    24    25    1
    25    24    21    1
    26    22    21    1
    27    22    29   am
    28    30    31    1
    29    30    29    1
    30    30    33    1
    31    27    28    1
    32    21    20    1
    33    34    33    1
    34    31    35   am
    35   109   110    1
    36   111   112    2
    37   111   110    1
    38    81    80   ar
    39    38    37    2
    40    82    80   ar
    41    37    36    1
    42   110   113    1
    43    80    79    1
    44   116   115    2
    45    35    36    1
    46    20    18   am
    47    57    55    1
    48    19    18    2
    49    36    39    1
    50    18    17    1
    51   113   114    1
    52    90    89    2
    53   115   114    1
    54   115   117   am
    55    55    56    1
    56    55    52    1
    57    79    76    1
    58    40    41    1
    59    89    88    1
    60   161   158    1
    61    15    13    1
    62   158   157    1
    63   158   159    1
    64   154   153    2
    65    51    52    1
    66    51    42   am
    67    41    42    1
    68    41    44    1
    69   160   159    2
    70    17    16    1
    71    76    77    1
    72    76    75    1
    73    52    53    1
    74   151   152    1
    75    77    78    2
    76   157   153   am
    77   124   123    2
    78   153   152    1
    79    42    43    2
    80    88    87    1
    81    88    91    1
    82   159   162   am
    83   122   123    1
    84   122   119    1
    85    16    11   am
    86   123   125   am
    87    87    93    1
    88    54    53    2
    89   118   119    1
    90    13    14    1
    91    13    10    1
    92     1     2    1
    93    53    58   am
    94   152   155    1
    95   119   120    1
    96    44    45    1
    97    11    12    2
    98    11    10    1
    99    75    69   am
   100     2     3    1
   101    46    45   ar
   102    46    48   ar
   103   162   163    1
   104    10     9    1
   105    91    92    1
   106     9     7   am
   107    93    92    1
   108    45    47   ar
   109     5     3   am
   110     5     6    1
   111   155   156    1
   112    58    59    1
   113     3     4    2
   114   165   164    2
   115   164   163    1
   116    48    50   ar
   117    69    70    2
   118    69    68    1
   119   120   126   am
   120   120   121    2
   121   163   166    1
   122   126   127    1
   123     7     6    1
   124     7     8    2
   125    61    60    2
   126    59    60    1
   127    59    62    1
   128    60    67   am
   129    47    49   ar
   130    67    68    1
   131    68    71    1
   132    50    49   ar
   133   166   167    1
   134   127   128    1
   135   127   130    1
   136   131   130    1
   137   131   132    1
   138    62    63    1
   139    63    64    1
   140   133   132    1
   141   133   134    1
   142   128   129    2
   143    71    72    1
   144   167   168    1
   145   141   140   ar
   146   135   136    1
   147    66    64   ar
   148    64    65   ar
   149    72    73   ar
   150    72    74   ar
   151   140   139    1
   152   140   142   ar
   153   168   169    1
   154   139   136    1
   155   136   137    1
   156   169   170    1
   157   143   137   am
   158   143   144    1
   159   137   138    2
   160   149   148    1
   161   148   147    1
   162   148   150    1
   163   147   144    1
   164   144   145    1
   165   145   146    2
