@<TRIPOS>MOLECULE
tmp/2a9nD00.pdb
 107 103 0 0 0
SMALL
GASTEIGER

@<TRIPOS>ATOM
      1  N         22.8860   26.9980   30.0690 N.3    35  SER35      -0.1217
      2  CA        24.3300   27.1150   30.2860 C.3    35  SER35       0.1889
      3  C         25.0590   27.4810   29.0070 C.2    35  SER35       0.2288
      4  O         24.4960   27.4520   27.9330 O.2    35  SER35      -0.2866
      5  CB        24.9130   25.7980   30.8100 C.3    35  SER35       0.2089
      6  OG        24.0930   25.1960   31.7890 O.3    35  SER35      -0.2183
      7  N         32.6930   23.9760   31.0840 N.3    47  TRP47      -0.1241
      8  CA        31.6240   24.8800   31.5290 C.3    47  TRP47       0.1605
      9  C         32.1320   26.2930   31.8320 C.2    47  TRP47       0.2264
     10  O         33.1660   26.4660   32.4890 O.2    47  TRP47      -0.2867
     11  CB        30.9700   24.3080   32.7750 C.3    47  TRP47       0.0550
     12  CG        29.8950   25.1410   33.3680 C.ar   47  TRP47       0.0003
     13  CD1       28.5790   25.1630   33.0090 C.ar   47  TRP47       0.0946
     14  CD2       30.0280   26.0420   34.4700 C.ar   47  TRP47       0.0152
     15  NE1       27.8890   26.0390   33.8130 N.ar   47  TRP47      -0.2442
     16  CE2       28.7500   26.5960   34.7150 C.ar   47  TRP47       0.0810
     17  CE3       31.1100   26.4610   35.2680 C.ar   47  TRP47       0.0012
     18  CZ2       28.5190   27.5370   35.7180 C.ar   47  TRP47       0.0191
     19  CZ3       30.8810   27.3990   36.2690 C.ar   47  TRP47       0.0001
     20  CH2       29.5960   27.9270   36.4820 C.ar   47  TRP47       0.0015
     21  N         26.2040   30.1490   33.4850 N.3    50  GLY50      -0.1210
     22  CA        24.8190   29.7250   33.4430 C.3    50  GLY50       0.1956
     23  C         23.8270   30.6640   34.0890 C.2    50  GLY50       0.2612
     24  O         24.2030   31.6140   34.7480 O.2    50  GLY50      -0.2717
     25  N         22.5480   30.3740   33.8690 N.am   51  LEU51      -0.1965
     26  CA        21.4270   31.1010   34.4470 C.3    51  LEU51       0.1728
     27  C         20.5420   30.1270   35.1570 C.2    51  LEU51       0.2616
     28  O         20.4340   28.9830   34.7400 O.2    51  LEU51      -0.2715
     29  CB        20.5600   31.7080   33.3570 C.3    51  LEU51       0.0311
     30  CG        20.9290   33.0510   32.7750 C.3    51  LEU51       0.0022
     31  CD1       19.9230   33.3830   31.6980 C.3    51  LEU51       0.0001
     32  CD2       20.9590   34.1020   33.8670 C.3    51  LEU51       0.0001
     33  N         19.8630   30.6050   36.1900 N.am   52  SER52      -0.1950
     34  CA        18.8650   29.8170   36.8980 C.3    52  SER52       0.1924
     35  C         17.5000   30.1700   36.3540 C.2    52  SER52       0.2314
     36  O         17.3640   31.1130   35.5780 O.2    52  SER52      -0.2863
     37  CB        18.9530   30.0820   38.3890 C.3    52  SER52       0.2116
     38  OG        20.2930   29.8890   38.8120 O.3    52  SER52      -0.2180
     39  N         19.7690   34.4240   38.7420 N.3    57  LEU57      -0.1245
     40  CA        21.0520   34.1630   39.3750 C.3    57  LEU57       0.1561
     41  C         22.0470   33.6180   38.3610 C.2    57  LEU57       0.2260
     42  O         21.8700   32.5210   37.8260 O.2    57  LEU57      -0.2867
     43  CB        20.9050   33.1650   40.5390 C.3    57  LEU57       0.0270
     44  CG        20.6460   33.7280   41.9460 C.3    57  LEU57       0.0019
     45  CD1       20.4820   32.5890   42.9510 C.3    57  LEU57       0.0001
     46  CD2       21.7700   34.6790   42.4090 C.3    57  LEU57       0.0001
     47  N         26.0160   32.4310   37.2990 N.3    59  HIS59      -0.1241
     48  CA        27.0970   31.6270   37.8550 C.3    59  HIS59       0.1621
     49  C         28.1860   31.5810   36.8140 C.2    59  HIS59       0.2264
     50  O         27.9110   31.2820   35.6620 O.2    59  HIS59      -0.2867
     51  CB        26.6490   30.1910   38.0810 C.3    59  HIS59       0.0745
     52  CG        25.8100   29.9990   39.2980 C.ar   59  HIS59       0.0817
     53  ND1       26.3550   29.8460   40.5570 N.ar   59  HIS59      -0.2268
     54  CD2       24.4640   29.9110   39.4480 C.ar   59  HIS59       0.1154
     55  CE1       25.3790   29.6810   41.4330 C.ar   59  HIS59       0.1986
     56  NE2       24.2230   29.7150   40.7870 N.ar   59  HIS59      -0.2212
     57  N         18.4280   23.8530   30.0920 N.3    99  ARG99      -0.1245
     58  CA        18.2170   22.8190   31.1000 C.3    99  ARG99       0.1563
     59  C         16.7360   22.8420   31.4400 C.2    99  ARG99       0.2260
     60  O         16.1980   23.8760   31.8080 O.2    99  ARG99      -0.2867
     61  CB        19.0800   23.0870   32.3400 C.3    99  ARG99       0.0307
     62  CG        20.5720   23.3720   32.0280 C.3    99  ARG99       0.0489
     63  CD        21.5300   23.3800   33.2320 C.3    99  ARG99       0.2205
     64  NE        20.9800   24.0020   34.4410 N.pl3  99  ARG99      -0.0865
     65  CZ        21.2220   25.2450   34.8700 C.cat  99  ARG99       0.5346
     66  NH1       22.0030   26.0840   34.2050 N.pl3  99  ARG99       0.1354
     67  NH2       20.6580   25.6610   35.9890 N.pl3  99  ARG99       0.1354
     68  N         16.2970   22.6450   44.7500 N.3   108  GLY108     -0.1210
     69  CA        17.6380   23.1440   44.4400 C.3   108  GLY108      0.1956
     70  C         18.4550   22.2880   43.4760 C.2   108  GLY108      0.2611
     71  O         19.6260   22.5700   43.2130 O.2   108  GLY108     -0.2717
     72  N         17.8110   21.2450   42.9520 N.am  109  HIS109     -0.1975
     73  CA        18.4080   20.2660   42.0500 C.3   109  HIS109      0.1656
     74  C         17.3690   19.8690   41.0000 C.2   109  HIS109      0.2291
     75  O         17.2380   18.6940   40.6610 O.2   109  HIS109     -0.2864
     76  CB        18.8240   19.0140   42.8140 C.3   109  HIS109      0.0771
     77  CG        19.7520   19.2720   43.9550 C.ar  109  HIS109      0.0820
     78  ND1       21.0820   18.9130   43.9240 N.ar  109  HIS109     -0.2267
     79  CD2       19.5400   19.8270   45.1690 C.ar  109  HIS109      0.1154
     80  CE1       21.6540   19.2480   45.0660 C.ar  109  HIS109      0.1986
     81  NE2       20.7400   19.8080   45.8360 N.ar  109  HIS109     -0.2212
     82  N         17.4570   21.2940   37.8960 N.3   111  TYR111     -0.1227
     83  CA        18.0260   21.6690   36.6000 C.3   111  TYR111      0.1736
     84  C         19.4540   21.1480   36.4790 C.2   111  TYR111      0.2596
     85  O         20.4040   21.9320   36.3680 O.2   111  TYR111     -0.2718
     86  CB        17.9800   23.1920   36.4260 C.3   111  TYR111      0.0548
     87  CG        16.5970   23.7810   36.5980 C.ar  111  TYR111     -0.0200
     88  CD1       16.1630   24.2510   37.8300 C.ar  111  TYR111     -0.0009
     89  CD2       15.7160   23.8530   35.5350 C.ar  111  TYR111     -0.0009
     90  CE1       14.8900   24.7740   37.9920 C.ar  111  TYR111      0.0417
     91  CE2       14.4490   24.3820   35.6910 C.ar  111  TYR111      0.0417
     92  CZ        14.0450   24.8380   36.9180 C.ar  111  TYR111      0.1957
     93  OH        12.7890   25.3540   37.0630 O.3   111  TYR111     -0.2866
     94  N         19.5840   19.8150   36.4740 N.am  112  SER112     -0.1952
     95  CA        20.8770   19.1300   36.5790 C.3   112  SER112      0.1924
     96  C         21.4810   18.6330   35.2640 C.2   112  SER112      0.2314
     97  O         22.6790   18.3720   35.1900 O.2   112  SER112     -0.2863
     98  CB        20.7820   17.9770   37.5810 C.3   112  SER112      0.2116
     99  OG        19.8800   16.9890   37.1700 O.3   112  SER112     -0.2180
    100  N         21.6720   19.0090   30.7730 N.3   114  MET114     -0.1245
    101  CA        21.4720   19.8380   29.5960 C.3   114  MET114      0.1570
    102  C         20.9250   18.9810   28.4550 C.2   114  MET114      0.2261
    103  O         21.6650   18.2200   27.8330 O.2   114  MET114     -0.2867
    104  CB        22.7870   20.4830   29.1970 C.3   114  MET114      0.0387
    105  CG        23.4870   21.1570   30.3380 C.3   114  MET114      0.0595
    106  SD        25.1430   21.5460   29.9080 S.3   114  MET114     -0.1393
    107  CE        25.8030   21.9940   31.4610 C.3   114  MET114      0.0692
@<TRIPOS>BOND
     1   103   102    2
     2     4     3    2
     3   102   101    1
     4     3     2    1
     5   104   101    1
     6   104   105    1
     7   101   100    1
     8   106   105    1
     9   106   107    1
    10     1     2    1
    11    57    58    1
    12     2     5    1
    13     5     6    1
    14     7     8    1
    15    58    59    1
    16    58    61    1
    17    59    60    2
    18     8     9    1
    19     8    11    1
    20    31    30    1
    21     9    10    2
    22    62    61    1
    23    62    63    1
    24    11    12    1
    25    30    29    1
    26    30    32    1
    27    13    12   ar
    28    13    15   ar
    29    63    64    1
    30    29    26    1
    31    12    14   ar
    32    22    21    1
    33    22    23    1
    34    15    16   ar
    35    25    23   am
    36    25    26    1
    37    23    24    2
    38    66    65    1
    39    64    65    2
    40    26    27    1
    41    14    16   ar
    42    14    17   ar
    43    16    18   ar
    44    28    27    2
    45    65    67    1
    46    27    33   am
    47    97    96    2
    48    96    95    1
    49    17    19   ar
    50    89    91   ar
    51    89    87   ar
    52    36    35    2
    53    50    49    2
    54    91    92   ar
    55    18    20   ar
    56    33    34    1
    57    19    20   ar
    58    35    34    1
    59    85    84    2
    60    86    87    1
    61    86    83    1
    62    94    84   am
    63    94    95    1
    64    84    83    1
    65    95    98    1
    66    87    88   ar
    67    83    82    1
    68    49    48    1
    69    34    37    1
    70    92    93    1
    71    92    90   ar
    72    99    98    1
    73    47    48    1
    74    42    41    2
    75    88    90   ar
    76    48    51    1
    77    51    52    1
    78    41    40    1
    79    37    38    1
    80    39    40    1
    81    52    54   ar
    82    52    53   ar
    83    40    43    1
    84    54    56   ar
    85    43    44    1
    86    53    55   ar
    87    75    74    2
    88    56    55   ar
    89    74    73    1
    90    44    46    1
    91    44    45    1
    92    73    76    1
    93    73    72    1
    94    76    77    1
    95    72    70   am
    96    71    70    2
    97    70    69    1
    98    78    77   ar
    99    78    80   ar
   100    77    79   ar
   101    69    68    1
   102    80    81   ar
   103    79    81   ar
