@<TRIPOS>MOLECULE
tmp/2a9wA01.pdb
 133 130 0 0 0
SMALL
GASTEIGER

@<TRIPOS>ATOM
      1  N         40.2470   42.8930  -19.8120 N.3    50  HIS50      -0.1241
      2  CA        41.3860   43.6080  -19.2470 C.3    50  HIS50       0.1621
      3  C         41.2360   43.7210  -17.7330 C.2    50  HIS50       0.2264
      4  O         40.1700   44.0770  -17.2370 O.2    50  HIS50      -0.2867
      5  CB        41.4850   45.0050  -19.8610 C.3    50  HIS50       0.0745
      6  CG        41.6440   44.9990  -21.3500 C.ar   50  HIS50       0.0817
      7  ND1       42.7230   44.4170  -21.9800 N.ar   50  HIS50      -0.2268
      8  CD2       40.8550   45.4920  -22.3340 C.ar   50  HIS50       0.1154
      9  CE1       42.5920   44.5500  -23.2880 C.ar   50  HIS50       0.1986
     10  NE2       41.4670   45.1990  -23.5290 N.ar   50  HIS50      -0.2212
     11  N         43.2980   45.6840  -15.7360 N.3    52  ARG52      -0.1231
     12  CA        43.7910   46.9610  -15.2290 C.3    52  ARG52       0.1694
     13  C         42.7860   47.7010  -14.3430 C.2    52  ARG52       0.2592
     14  O         43.0940   48.0460  -13.2000 O.2    52  ARG52      -0.2718
     15  CB        44.2100   47.8600  -16.3970 C.3    52  ARG52       0.0321
     16  CG        44.9210   49.1390  -15.9810 C.3    52  ARG52       0.0489
     17  CD        45.2280   49.9910  -17.2050 C.3    52  ARG52       0.2205
     18  NE        44.0040   50.3450  -17.9150 N.pl3  52  ARG52      -0.0865
     19  CZ        43.2080   51.3560  -17.5830 C.cat  52  ARG52       0.5346
     20  NH1       43.5100   52.1310  -16.5530 N.pl3  52  ARG52       0.1354
     21  NH2       42.0970   51.5830  -18.2710 N.pl3  52  ARG52       0.1354
     22  N         41.5910   47.9510  -14.8680 N.am   53  SER53      -0.1952
     23  CA        40.5680   48.6590  -14.1020 C.3    53  SER53       0.1924
     24  C         40.0730   47.8450  -12.9120 C.2    53  SER53       0.2314
     25  O         39.7720   48.3960  -11.8500 O.2    53  SER53      -0.2863
     26  CB        39.3890   49.0230  -15.0030 C.3    53  SER53       0.2116
     27  OG        39.7820   49.9730  -15.9760 O.3    53  SER53      -0.2180
     28  N         40.2770   49.1910   -9.1490 N.3    57  GLU57      -0.1245
     29  CA        39.0260   49.3500   -8.4140 C.3    57  GLU57       0.1567
     30  C         39.0750   48.6100   -7.0780 C.2    57  GLU57       0.2260
     31  O         38.6330   49.1460   -6.0630 O.2    57  GLU57      -0.2867
     32  CB        37.8260   48.8410   -9.2220 C.3    57  GLU57       0.0388
     33  CG        36.4970   49.1370   -8.5200 C.3    57  GLU57       0.1160
     34  CD        35.3200   48.3970   -9.1130 C.2    57  GLU57       0.3649
     35  OE1       35.4140   47.1640   -9.2520 O.co2  57  GLU57      -0.2457
     36  OE2       34.2960   49.0440   -9.4260 O.co2  57  GLU57      -0.2457
     37  N         38.3050   55.1220  -15.5290 N.3    77  THR77      -0.1203
     38  CA        37.0810   55.8910  -15.6900 C.3    77  THR77       0.1994
     39  C         35.7390   55.1910  -15.4860 C.2    77  THR77       0.2618
     40  O         34.6930   55.7850  -15.7520 O.2    77  THR77      -0.2717
     41  CB        37.0860   56.5070  -17.0970 C.3    77  THR77       0.1784
     42  OG1       37.2100   55.4540  -18.0620 O.3    77  THR77      -0.2211
     43  CG2       38.2770   57.4490  -17.2620 C.3    77  THR77       0.0376
     44  N         35.7630   53.9570  -14.9940 N.am   78  ILE78      -0.1965
     45  CA        34.5380   53.1820  -14.8110 C.3    78  ILE78       0.1727
     46  C         33.4880   53.7380  -13.8500 C.2    78  ILE78       0.2616
     47  O         32.3270   53.3440  -13.9290 O.2    78  ILE78      -0.2715
     48  CB        34.8570   51.7230  -14.4010 C.3    78  ILE78       0.0290
     49  CG1       35.5560   51.6890  -13.0440 C.3    78  ILE78       0.0022
     50  CG2       35.7370   51.0800  -15.4570 C.3    78  ILE78       0.0023
     51  CD1       35.8490   50.2780  -12.5490 C.3    78  ILE78       0.0001
     52  N         33.8770   54.6470  -12.9570 N.am   79  TRP79      -0.1974
     53  CA        32.9190   55.2320  -12.0160 C.3    79  TRP79       0.1640
     54  C         32.5560   56.6700  -12.3620 C.2    79  TRP79       0.2290
     55  O         31.7810   57.3080  -11.6500 O.2    79  TRP79      -0.2864
     56  CB        33.4590   55.1930  -10.5790 C.3    79  TRP79       0.0576
     57  CG        33.2980   53.8650   -9.9300 C.ar   79  TRP79       0.0006
     58  CD1       34.1860   52.8290   -9.9400 C.ar   79  TRP79       0.0946
     59  CD2       32.1400   53.3970   -9.2290 C.ar   79  TRP79       0.0152
     60  NE1       33.6500   51.7390   -9.2900 N.ar   79  TRP79      -0.2442
     61  CE2       32.3950   52.0630   -8.8430 C.ar   79  TRP79       0.0810
     62  CE3       30.9090   53.9780   -8.8890 C.ar   79  TRP79       0.0012
     63  CZ2       31.4620   51.2940   -8.1320 C.ar   79  TRP79       0.0191
     64  CZ3       29.9800   53.2150   -8.1820 C.ar   79  TRP79       0.0001
     65  CH2       30.2640   51.8870   -7.8120 C.ar   79  TRP79       0.0015
     66  N         30.5940   58.0900  -14.6650 N.3    81  GLU81      -0.1245
     67  CA        29.1970   58.4330  -14.9010 C.3    81  GLU81       0.1567
     68  C         28.3310   58.5730  -13.6550 C.2    81  GLU81       0.2260
     69  O         27.2680   59.1900  -13.7070 O.2    81  GLU81      -0.2867
     70  CB        28.5490   57.4200  -15.8480 C.3    81  GLU81       0.0388
     71  CG        28.6730   55.9730  -15.4200 C.3    81  GLU81       0.1160
     72  CD        27.8010   55.0500  -16.2500 C.2    81  GLU81       0.3649
     73  OE1       28.1810   53.8750  -16.4330 O.co2  81  GLU81      -0.2457
     74  OE2       26.7260   55.4980  -16.7090 O.co2  81  GLU81      -0.2457
     75  N         28.1410   41.9920  -19.8690 N.3   171  LEU171     -0.1231
     76  CA        29.0990   43.0360  -19.5340 C.3   171  LEU171      0.1693
     77  C         29.7270   42.9890  -18.1550 C.2   171  LEU171      0.2592
     78  O         30.9440   43.0610  -18.0170 O.2   171  LEU171     -0.2718
     79  CB        28.4650   44.4170  -19.7170 C.3   171  LEU171      0.0284
     80  CG        28.3500   44.9290  -21.1510 C.3   171  LEU171      0.0019
     81  CD1       27.6980   46.3070  -21.1420 C.3   171  LEU171      0.0001
     82  CD2       29.7400   44.9910  -21.7840 C.3   171  LEU171      0.0001
     83  N         28.9030   42.8670  -17.1270 N.am  172  GLY172     -0.1957
     84  CA        29.4490   42.8920  -15.7870 C.3   172  GLY172      0.1869
     85  C         29.9850   41.6290  -15.1560 C.2   172  GLY172      0.2309
     86  O         30.9800   41.6860  -14.4390 O.2   172  GLY172     -0.2863
     87  N         33.7910   40.7230  -15.1730 N.3   175  PHE175     -0.1227
     88  CA        34.5010   41.6990  -14.3520 C.3   175  PHE175      0.1736
     89  C         34.3610   41.3360  -12.8700 C.2   175  PHE175      0.2595
     90  O         35.3450   41.2640  -12.1340 O.2   175  PHE175     -0.2718
     91  CB        33.8990   43.0860  -14.6180 C.3   175  PHE175      0.0547
     92  CG        34.6440   44.2250  -13.9750 C.ar  175  PHE175     -0.0202
     93  CD1       34.6730   44.3770  -12.5910 C.ar  175  PHE175     -0.0042
     94  CD2       35.2850   45.1760  -14.7670 C.ar  175  PHE175     -0.0042
     95  CE1       35.3260   45.4600  -12.0050 C.ar  175  PHE175     -0.0003
     96  CE2       35.9410   46.2620  -14.1900 C.ar  175  PHE175     -0.0003
     97  CZ        35.9600   46.4030  -12.8040 C.ar  175  PHE175     -0.0000
     98  N         33.1200   41.0950  -12.4620 N.am  176  ASN176     -0.1974
     99  CA        32.7830   40.7500  -11.0860 C.3   176  ASN176      0.1688
    100  C         33.4940   39.4890  -10.5960 C.2   176  ASN176      0.2292
    101  O         34.0060   39.4510   -9.4760 O.2   176  ASN176     -0.2864
    102  CB        31.2630   40.5800  -10.9710 C.3   176  ASN176      0.1181
    103  CG        30.8100   40.3060   -9.5550 C.2   176  ASN176      0.2629
    104  OD1       31.1670   41.0310   -8.6240 O.2   176  ASN176     -0.2716
    105  ND2       30.0080   39.2610   -9.3830 N.am  176  ASN176     -0.0877
    106  N         32.5320   43.8860  -28.2760 N.3   258  LYS258     -0.1231
    107  CA        31.9330   45.1210  -27.7930 C.3   258  LYS258      0.1693
    108  C         30.4230   44.9660  -27.6070 C.2   258  LYS258      0.2592
    109  O         29.7390   44.4020  -28.4590 O.2   258  LYS258     -0.2718
    110  CB        32.2230   46.2560  -28.7810 C.3   258  LYS258      0.0285
    111  CG        31.7780   47.6280  -28.3090 C.3   258  LYS258      0.0035
    112  CD        32.0630   48.6880  -29.3620 C.3   258  LYS258      0.0206
    113  CE        31.2920   48.4090  -30.6400 C.3   258  LYS258      0.1093
    114  NZ        31.5660   49.4420  -31.6670 N.3   258  LYS258     -0.1314
    115  N         29.9130   45.4630  -26.4850 N.am  259  ALA259     -0.1966
    116  CA        28.4840   45.4040  -26.1910 C.3   259  ALA259      0.1713
    117  C         28.0580   46.7950  -25.7270 C.2   259  ALA259      0.2458
    118  O         28.3430   47.1970  -24.6000 O.2   259  ALA259     -0.2730
    119  CB        28.2070   44.3730  -25.1040 C.3   259  ALA259      0.0333
    120  N         27.3590   47.5450  -26.5940 N.am  260  PRO260     -0.2716
    121  CA        26.8980   48.9010  -26.2810 C.3   260  PRO260      0.1536
    122  C         25.7120   48.9540  -25.3380 C.2   260  PRO260      0.2598
    123  O         24.9870   47.9800  -25.1890 O.2   260  PRO260     -0.2715
    124  CB        26.5560   49.4600  -27.6500 C.3   260  PRO260      0.0310
    125  CG        25.9300   48.2640  -28.3110 C.3   260  PRO260      0.0237
    126  CD        26.8760   47.1270  -27.9250 C.3   260  PRO260      0.0939
    127  N         25.5100   50.1110  -24.7160 N.am  261  VAL261     -0.1978
    128  CA        24.4070   50.2820  -23.7840 C.3   261  VAL261      0.1596
    129  C         23.5770   51.4970  -24.1600 C.2   261  VAL261      0.2287
    130  O         24.0880   52.4470  -24.7480 O.2   261  VAL261     -0.2864
    131  CB        24.9280   50.4540  -22.3360 C.3   261  VAL261      0.0276
    132  CG1       25.7060   49.2190  -21.9220 C.3   261  VAL261      0.0022
    133  CG2       25.8260   51.6920  -22.2330 C.3   261  VAL261      0.0022
@<TRIPOS>BOND
     1   114   113    1
     2   113   112    1
     3   112   111    1
     4   110   111    1
     5   110   107    1
     6   109   108    2
     7   125   126    1
     8   125   124    1
     9   106   107    1
    10   126   120    1
    11   107   108    1
    12   124   121    1
    13   108   115   am
    14   120   121    1
    15   120   117   am
    16   115   116    1
    17   121   122    1
    18   116   117    1
    19   116   119    1
    20   117   118    2
    21   122   123    2
    22   122   127   am
    23   130   129    2
    24   127   128    1
    25   129   128    1
    26   128   131    1
    27    10     9   ar
    28    10     8   ar
    29     9     7   ar
    30   131   133    1
    31   131   132    1
    32     8     6   ar
    33     7     6   ar
    34    82    80    1
    35     6     5    1
    36    80    81    1
    37    80    79    1
    38    75    76    1
    39     5     2    1
    40     1     2    1
    41    79    76    1
    42    76    77    1
    43     2     3    1
    44    21    19    1
    45    77    78    2
    46    77    83   am
    47    42    41    1
    48    18    19    2
    49    18    17    1
    50     3     4    2
    51    19    20    1
    52    43    41    1
    53    17    16    1
    54    83    84    1
    55    41    38    1
    56    74    72   ar
    57    73    72   ar
    58    15    16    1
    59    15    12    1
    60    72    71    1
    61    27    26    1
    62    70    71    1
    63    70    67    1
    64    84    85    1
    65    40    39    2
    66    11    12    1
    67    38    37    1
    68    38    39    1
    69    39    44   am
    70    50    48    1
    71    12    13    1
    72    87    88    1
    73    85    86    2
    74    26    23    1
    75    44    45    1
    76    67    66    1
    77    67    68    1
    78    22    13   am
    79    22    23    1
    80    45    48    1
    81    45    46    1
    82    94    96   ar
    83    94    92   ar
    84    91    88    1
    85    91    92    1
    86    48    49    1
    87    88    89    1
    88    13    14    2
    89    96    97   ar
    90    23    24    1
    91    92    93   ar
    92    47    46    2
    93    46    52   am
    94    69    68    2
    95    49    51    1
    96    52    53    1
    97    24    25    2
    98    89    98   am
    99    89    90    2
   100    97    95   ar
   101    93    95   ar
   102    98    99    1
   103    54    53    1
   104    54    55    2
   105    53    56    1
   106    99   102    1
   107    99   100    1
   108   102   103    1
   109   100   101    2
   110    56    57    1
   111    58    57   ar
   112    58    60   ar
   113    57    59   ar
   114   103   105   am
   115   103   104    2
   116    36    34   ar
   117    60    61   ar
   118    35    34   ar
   119    59    62   ar
   120    59    61   ar
   121    32    33    1
   122    32    29    1
   123    28    29    1
   124    34    33    1
   125    62    64   ar
   126    61    63   ar
   127    29    30    1
   128    64    65   ar
   129    63    65   ar
   130    30    31    2
