@<TRIPOS>MOLECULE
tmp/2a9yA01.pdb
 137 129 0 0 0
SMALL
GASTEIGER

@<TRIPOS>ATOM
      1  N        -19.6230  -50.4200 -118.0680 N.3   269  THR269     -0.1203
      2  CA       -20.7990  -50.2270 -117.2050 C.3   269  THR269      0.1994
      3  C        -21.5150  -48.9630 -117.7060 C.2   269  THR269      0.2618
      4  O        -20.9270  -48.0060 -118.2680 O.2   269  THR269     -0.2717
      5  CB       -20.4350  -50.0990 -115.7260 C.3   269  THR269      0.1784
      6  OG1      -19.6730  -48.9200 -115.5760 O.3   269  THR269     -0.2211
      7  CG2      -19.5820  -51.2820 -115.2580 C.3   269  THR269      0.0376
      8  N        -22.8470  -48.9570 -117.5680 N.am  270  ARG270     -0.1965
      9  CA       -23.7220  -47.9250 -118.1630 C.3   270  ARG270      0.1729
     10  C        -24.7980  -47.4900 -117.1770 C.2   270  ARG270      0.2617
     11  O        -25.9450  -47.2000 -117.5310 O.2   270  ARG270     -0.2715
     12  CB       -24.3290  -48.4820 -119.4670 C.3   270  ARG270      0.0348
     13  CG       -23.2250  -48.7250 -120.5160 C.3   270  ARG270      0.0492
     14  CD       -23.7840  -49.4290 -121.7420 C.3   270  ARG270      0.2205
     15  NE       -24.6710  -48.6730 -122.5730 N.pl3 270  ARG270     -0.0865
     16  CZ       -25.8940  -49.0240 -122.9840 C.cat 270  ARG270      0.5346
     17  NH1      -26.4300  -50.1710 -122.5940 N.pl3 270  ARG270      0.1354
     18  NH2      -26.5690  -48.2200 -123.7810 N.pl3 270  ARG270      0.1354
     19  N        -24.4230  -47.4030 -115.8950 N.am  271  GLY271     -0.1940
     20  CA       -25.3900  -46.8880 -114.9330 C.3   271  GLY271      0.2014
     21  C        -26.5710  -47.8670 -114.8250 C.2   271  GLY271      0.2638
     22  O        -26.3220  -49.0600 -114.6410 O.2   271  GLY271     -0.2714
     23  N        -27.7820  -47.3190 -114.9520 N.am  272  HIS272     -0.1973
     24  CA       -28.9860  -48.1340 -114.9190 C.3   272  HIS272      0.1656
     25  C        -29.1300  -48.9650 -116.1900 C.2   272  HIS272      0.2291
     26  O        -29.9440  -49.9080 -116.1730 O.2   272  HIS272     -0.2864
     27  CB       -30.2120  -47.2330 -114.6920 C.3   272  HIS272      0.0771
     28  CG       -30.7460  -46.5650 -115.9050 C.ar  272  HIS272      0.0820
     29  ND1      -30.1920  -45.4050 -116.4210 N.ar  272  HIS272     -0.2267
     30  CD2      -31.7940  -46.8640 -116.7190 C.ar  272  HIS272      0.1154
     31  CE1      -30.8730  -45.0370 -117.4940 C.ar  272  HIS272      0.1986
     32  NE2      -31.8520  -45.8980 -117.7010 N.ar  272  HIS272     -0.2212
     33  N        -25.1870  -53.5410 -118.9430 N.3   275  VAL275     -0.1245
     34  CA       -23.7310  -53.5860 -119.1910 C.3   275  VAL275      0.1561
     35  C        -23.4850  -54.0960 -120.6000 C.2   275  VAL275      0.2260
     36  O        -24.1440  -55.0310 -121.0410 O.2   275  VAL275     -0.2867
     37  CB       -23.0650  -54.4660 -118.1320 C.3   275  VAL275      0.0252
     38  CG1      -21.5650  -54.5750 -118.3850 C.3   275  VAL275      0.0019
     39  CG2      -23.3870  -53.8600 -116.7560 C.3   275  VAL275      0.0019
     40  N        -29.4710  -54.7530 -116.1410 N.3   293  VAL293     -0.1231
     41  CA       -29.2420  -54.3110 -114.7750 C.3   293  VAL293      0.1678
     42  C        -30.5980  -54.2560 -114.0830 C.2   293  VAL293      0.2434
     43  O        -31.4650  -53.4990 -114.5270 O.2   293  VAL293     -0.2733
     44  CB       -28.5510  -52.9420 -114.7650 C.3   293  VAL293      0.0265
     45  CG1      -28.5340  -52.3300 -113.3790 C.3   293  VAL293      0.0020
     46  CG2      -27.1160  -53.0920 -115.3020 C.3   293  VAL293      0.0020
     47  N        -30.7550  -55.0710 -113.0430 N.am  294  PRO294     -0.2718
     48  CA       -32.0110  -55.0980 -112.3090 C.3   294  PRO294      0.1535
     49  C        -32.3660  -53.7110 -111.8220 C.2   294  PRO294      0.2598
     50  O        -31.5460  -52.9150 -111.4120 O.2   294  PRO294     -0.2715
     51  CB       -31.7720  -56.0030 -111.0940 C.3   294  PRO294      0.0310
     52  CG       -30.7150  -56.9240 -111.6250 C.3   294  PRO294      0.0237
     53  CD       -29.8140  -56.0450 -112.4700 C.3   294  PRO294      0.0939
     54  N        -33.6690  -53.4510 -111.9140 N.am  295  VAL295     -0.1964
     55  CA       -34.0890  -52.1060 -111.5570 C.3   295  VAL295      0.1727
     56  C        -33.9640  -51.8270 -110.0800 C.2   295  VAL295      0.2616
     57  O        -34.3710  -52.6370 -109.2480 O.2   295  VAL295     -0.2715
     58  CB       -35.5660  -51.9130 -111.9890 C.3   295  VAL295      0.0290
     59  CG1      -36.0340  -50.5430 -111.5270 C.3   295  VAL295      0.0023
     60  CG2      -35.6790  -52.0910 -113.4850 C.3   295  VAL295      0.0023
     61  N        -33.3930  -50.6650 -109.7570 N.am  296  VAL296     -0.1977
     62  CA       -33.3520  -50.1560 -108.3760 C.3   296  VAL296      0.1596
     63  C        -33.9630  -48.7550 -108.3400 C.2   296  VAL296      0.2287
     64  O        -33.4360  -47.8660 -109.0180 O.2   296  VAL296     -0.2864
     65  CB       -31.9330  -50.0840 -107.8170 C.3   296  VAL296      0.0276
     66  CG1      -31.9870  -49.5650 -106.3720 C.3   296  VAL296      0.0022
     67  CG2      -31.1880  -51.4140 -107.8520 C.3   296  VAL296      0.0022
     68  N        -35.0110  -44.9830 -107.6610 N.3   298  ALA298     -0.1245
     69  CA       -34.2820  -43.7840 -107.2970 C.3   298  ALA298      0.1562
     70  C        -34.2040  -43.5750 -105.7860 C.2   298  ALA298      0.2260
     71  O        -33.1210  -43.1970 -105.3180 O.2   298  ALA298     -0.2867
     72  CB       -34.9490  -42.5460 -107.8940 C.3   298  ALA298      0.0290
     73  N        -31.4420  -45.4520 -103.8760 N.3   301  ILE301     -0.1245
     74  CA       -30.0270  -45.2470 -104.1460 C.3   301  ILE301      0.1561
     75  C        -29.5030  -44.1650 -103.2340 C.2   301  ILE301      0.2260
     76  O        -29.8910  -43.0100 -103.3760 O.2   301  ILE301     -0.2867
     77  CB       -29.8130  -44.7770 -105.5970 C.3   301  ILE301      0.0252
     78  CG1      -30.4290  -45.7440 -106.6100 C.3   301  ILE301      0.0019
     79  CG2      -28.3330  -44.5220 -105.8590 C.3   301  ILE301      0.0019
     80  CD1      -29.7860  -47.1130 -106.4910 C.3   301  ILE301      0.0001
     81  N        -23.9020  -43.3470 -105.6090 N.3   304  THR304     -0.1218
     82  CA       -23.3310  -44.2540 -106.5970 C.3   304  THR304      0.1862
     83  C        -21.8020  -44.2640 -106.5560 C.2   304  THR304      0.2287
     84  O        -21.2200  -45.0490 -107.3020 O.2   304  THR304     -0.2866
     85  CB       -23.7070  -43.9900 -108.0710 C.3   304  THR304      0.1770
     86  OG1      -23.2790  -42.6730 -108.4250 O.3   304  THR304     -0.2211
     87  CG2      -25.2050  -44.0850 -108.2380 C.3   304  THR304      0.0375
     88  N        -19.7890  -47.7230 -106.7220 N.3   307  ALA307     -0.1231
     89  CA       -20.5230  -48.7260 -107.5060 C.3   307  ALA307      0.1694
     90  C        -19.5930  -49.4420 -108.4630 C.2   307  ALA307      0.2592
     91  O        -19.6000  -50.6700 -108.5860 O.2   307  ALA307     -0.2718
     92  CB       -21.6900  -48.0660 -108.2500 C.3   307  ALA307      0.0304
     93  N        -18.7710  -48.6760 -109.1900 N.am  308  GLY308     -0.1957
     94  CA       -17.8450  -49.3110 -110.1250 C.3   308  GLY308      0.1869
     95  C        -16.7920  -50.1500 -109.4280 C.2   308  GLY308      0.2309
     96  O        -16.4830  -51.2470 -109.8720 O.2   308  GLY308     -0.2863
     97  N        -18.5130  -53.2700 -108.5400 N.3   311  PHE311     -0.1241
     98  CA       -18.7560  -54.0550 -109.7590 C.3   311  PHE311      0.1605
     99  C        -17.5170  -54.8630 -110.1050 C.2   311  PHE311      0.2264
    100  O        -17.5790  -56.0600 -110.4340 O.2   311  PHE311     -0.2867
    101  CB       -19.1290  -53.1040 -110.9050 C.3   311  PHE311      0.0534
    102  CG       -19.3180  -53.8470 -112.2340 C.ar  311  PHE311     -0.0203
    103  CD1      -20.6030  -54.3320 -112.5750 C.ar  311  PHE311     -0.0042
    104  CD2      -18.3000  -54.0800 -113.1520 C.ar  311  PHE311     -0.0042
    105  CE1      -20.7790  -55.0420 -113.7400 C.ar  311  PHE311     -0.0003
    106  CE2      -18.4540  -54.8230 -114.3040 C.ar  311  PHE311     -0.0003
    107  CZ       -19.7180  -55.3020 -114.6060 C.ar  311  PHE311     -0.0000
    108  N        -22.8470  -56.7470 -111.0020 N.3   333  ASN333     -0.1240
    109  CA       -24.0820  -55.9590 -110.7890 C.3   333  ASN333      0.1653
    110  C        -24.6020  -56.1530 -109.3660 C.2   333  ASN333      0.2266
    111  O        -25.0520  -55.2080 -108.7000 O.2   333  ASN333     -0.2867
    112  CB       -25.1960  -56.3430 -111.7490 C.3   333  ASN333      0.1155
    113  CG       -24.9880  -55.8970 -113.1700 C.2   333  ASN333      0.2627
    114  OD1      -25.6160  -56.4490 -114.1010 O.2   333  ASN333     -0.2716
    115  ND2      -24.1270  -54.9430 -113.4160 N.am  333  ASN333     -0.0877
    116  N        -22.4040  -54.2250 -106.9120 N.3   336  ALA336     -0.1231
    117  CA       -22.6240  -52.7890 -107.0520 C.3   336  ALA336      0.1694
    118  C        -23.9710  -52.3880 -106.4820 C.2   336  ALA336      0.2591
    119  O        -24.0820  -51.3550 -105.8190 O.2   336  ALA336     -0.2718
    120  CB       -22.6020  -52.3430 -108.5130 C.3   336  ALA336      0.0304
    121  N        -25.0110  -53.1760 -106.7330 N.am  337  GLN337     -0.1979
    122  CA       -26.3440  -52.7380 -106.2540 C.3   337  GLN337      0.1601
    123  C        -26.4620  -52.8140 -104.7430 C.2   337  GLN337      0.2287
    124  O        -27.2130  -52.0130 -104.1670 O.2   337  GLN337     -0.2864
    125  CB       -27.4390  -53.5460 -106.9570 C.3   337  GLN337      0.0394
    126  CG       -27.4540  -53.1400 -108.4460 C.3   337  GLN337      0.0908
    127  CD       -28.6480  -53.6850 -109.1970 C.2   337  GLN337      0.2608
    128  OE1      -29.2730  -54.6700 -108.7870 O.2   337  GLN337     -0.2717
    129  NE2      -28.9510  -53.0510 -110.3050 N.am  337  GLN337     -0.0878
    130  N        -24.6460  -49.4200 -103.4950 N.3   340  ILE340     -0.1245
    131  CA       -25.3240  -48.1450 -103.7330 C.3   340  ILE340      0.1561
    132  C        -26.5730  -47.9540 -102.8890 C.2   340  ILE340      0.2260
    133  O        -27.0750  -46.8150 -102.8630 O.2   340  ILE340     -0.2867
    134  CB       -25.6860  -47.9680 -105.2410 C.3   340  ILE340      0.0252
    135  CG1      -26.7500  -48.9450 -105.7180 C.3   340  ILE340      0.0019
    136  CG2      -24.4380  -48.0440 -106.0880 C.3   340  ILE340      0.0019
    137  CD1      -27.0790  -48.8610 -107.1890 C.3   340  ILE340      0.0001
@<TRIPOS>BOND
     1    18    16    1
     2    16    17    1
     3    16    15    2
     4    15    14    1
     5    14    13    1
     6    36    35    2
     7    35    34    1
     8    13    12    1
     9    12     9    1
    10    34    33    1
    11    34    37    1
    12    38    37    1
    13     4     3    2
    14     9     8    1
    15     9    10    1
    16    37    39    1
    17     1     2    1
    18     3     8   am
    19     3     2    1
    20    32    31   ar
    21    32    30   ar
    22    11    10    2
    23    31    29   ar
    24     2     5    1
    25    10    19   am
    26    30    28   ar
    27    29    28   ar
    28    25    26    2
    29    25    24    1
    30    40    41    1
    31    28    27    1
    32    19    20    1
    33     5     6    1
    34     5     7    1
    35    46    44    1
    36    23    24    1
    37    23    21   am
    38    20    21    1
    39    24    27    1
    40    21    22    2
    41    41    44    1
    42    41    42    1
    43    44    45    1
    44   107   106   ar
    45   107   105   ar
    46    43    42    2
    47   106   104   ar
    48   114   113    2
    49    42    47   am
    50   105   103   ar
    51    60    58    1
    52   115   113   am
    53   113   112    1
    54   104   102   ar
    55    47    53    1
    56    47    48    1
    57   103   102   ar
    58    53    52    1
    59    48    49    1
    60    48    51    1
    61   102   101    1
    62    58    55    1
    63    58    59    1
    64    54    49   am
    65    54    55    1
    66    49    50    2
    67   112   109    1
    68    52    51    1
    69    55    56    1
    70   108   109    1
    71   101    98    1
    72   109   110    1
    73   100    99    2
    74   129   127   am
    75    94    95    1
    76    94    93    1
    77    99    98    1
    78    56    61   am
    79    56    57    2
    80    96    95    2
    81    98    97    1
    82    61    62    1
    83   110   111    2
    84   127   128    2
    85   127   126    1
    86    93    90   am
    87    64    63    2
    88    91    90    2
    89   120   117    1
    90    90    89    1
    91   126   125    1
    92    86    85    1
    93    62    63    1
    94    62    65    1
    95    92    89    1
    96    87    85    1
    97    85    82    1
    98    72    69    1
    99    67    65    1
   100    65    66    1
   101    68    69    1
   102    89    88    1
   103    84    83    2
   104    69    70    1
   105   137   135    1
   106   117   116    1
   107   117   118    1
   108   125   122    1
   109   121   118   am
   110   121   122    1
   111    78    80    1
   112    78    77    1
   113    82    83    1
   114    82    81    1
   115   118   119    2
   116   122   123    1
   117   136   134    1
   118    79    77    1
   119    70    71    2
   120   135   134    1
   121    77    74    1
   122   134   131    1
   123   123   124    2
   124    74    73    1
   125    74    75    1
   126   131   130    1
   127   131   132    1
   128    76    75    2
   129   132   133    2
