@<TRIPOS>MOLECULE
tmp/2a9yA00.pdb
 168 154 0 0 0
SMALL
GASTEIGER

@<TRIPOS>ATOM
      1  N         -3.7800  -47.2430 -104.8400 N.3    11  ASN11      -0.1240
      2  CA        -3.5030  -46.1230 -103.9210 C.3    11  ASN11       0.1653
      3  C         -4.2600  -46.3750 -102.6220 C.2    11  ASN11       0.2266
      4  O         -5.4810  -46.2110 -102.6400 O.2    11  ASN11      -0.2867
      5  CB        -3.9990  -44.8360 -104.5650 C.3    11  ASN11       0.1155
      6  CG        -3.2620  -44.5110 -105.8450 C.2    11  ASN11       0.2627
      7  OD1       -2.0600  -44.7580 -105.9500 O.2    11  ASN11      -0.2716
      8  ND2       -3.9600  -43.9070 -106.8000 N.am   11  ASN11      -0.0877
      9  N         -6.0780  -45.6150  -99.4070 N.3    13  ILE13      -0.1245
     10  CA        -6.6140  -44.3450  -98.9070 C.3    13  ILE13       0.1561
     11  C         -7.5360  -44.5870  -97.7310 C.2    13  ILE13       0.2260
     12  O         -8.3580  -45.5100  -97.8190 O.2    13  ILE13      -0.2867
     13  CB        -7.3410  -43.5850 -100.0480 C.3    13  ILE13       0.0252
     14  CG1       -6.3660  -43.1420 -101.1240 C.3    13  ILE13       0.0019
     15  CG2       -8.1050  -42.3700  -99.5250 C.3    13  ILE13       0.0019
     16  CD1       -7.0250  -42.7530 -102.4380 C.3    13  ILE13       0.0001
     17  N        -10.7420  -43.3340  -96.0120 N.3    15  ASP15      -0.1239
     18  CA       -11.9090  -42.4640  -96.2150 C.3    15  ASP15       0.1674
     19  C        -12.3990  -41.9380  -94.8720 C.2    15  ASP15       0.2266
     20  O        -12.5680  -42.7170  -93.9040 O.2    15  ASP15      -0.2867
     21  CB       -13.0710  -43.1940  -96.9130 C.3    15  ASP15       0.1410
     22  CG       -12.7980  -43.4790  -98.3990 C.2    15  ASP15       0.3668
     23  OD1      -11.8320  -42.9540  -98.9890 O.co2  15  ASP15      -0.2456
     24  OD2      -13.5950  -44.2310  -99.0080 O.co2  15  ASP15      -0.2456
     25  N        -15.7200  -34.8500 -107.2960 N.3    35  ALA35      -0.1231
     26  CA       -14.6030  -35.5840 -106.7270 C.3    35  ALA35       0.1694
     27  C        -13.2950  -35.0340 -107.2940 C.2    35  ALA35       0.2593
     28  O        -12.9720  -35.1390 -108.4750 O.2    35  ALA35      -0.2718
     29  CB       -14.7350  -37.0790 -106.9660 C.3    35  ALA35       0.0304
     30  N        -12.5030  -34.4260 -106.4230 N.am   36  THR36      -0.1939
     31  CA       -11.2750  -33.7400 -106.7690 C.3    36  THR36       0.2028
     32  C        -10.1120  -34.1270 -105.8640 C.2    36  THR36       0.2642
     33  O        -10.2800  -34.7810 -104.8220 O.2    36  THR36      -0.2714
     34  CB       -11.4800  -32.2120 -106.6330 C.3    36  THR36       0.1808
     35  OG1      -11.9460  -31.9790 -105.2710 O.3    36  THR36      -0.2208
     36  CG2      -12.5150  -31.7050 -107.6230 C.3    36  THR36       0.0379
     37  N         -8.9310  -33.6660 -106.2970 N.am   37  LEU37      -0.1977
     38  CA        -7.7510  -33.6640 -105.4770 C.3    37  LEU37       0.1596
     39  C         -7.6290  -32.3540 -104.7120 C.2    37  LEU37       0.2287
     40  O         -7.8510  -31.2480 -105.2160 O.2    37  LEU37      -0.2864
     41  CB        -6.5600  -33.9160 -106.3940 C.3    37  LEU37       0.0297
     42  CG        -6.5950  -35.2800 -107.0910 C.3    37  LEU37       0.0022
     43  CD1       -5.5250  -35.3660 -108.1740 C.3    37  LEU37       0.0001
     44  CD2       -6.3670  -36.4190 -106.1080 C.3    37  LEU37       0.0001
     45  N        -10.5370  -47.0980  -97.7550 N.3    59  GLY59      -0.1210
     46  CA       -10.9000  -46.6230  -99.0910 C.3    59  GLY59       0.1956
     47  C         -9.7650  -46.8660 -100.0770 C.2    59  GLY59       0.2612
     48  O         -8.9190  -47.7500  -99.9030 O.2    59  GLY59      -0.2717
     49  N         -9.8250  -46.1140 -101.1670 N.am   60  GLY60      -0.1942
     50  CA        -9.0090  -46.3620 -102.3250 C.3    60  GLY60       0.2014
     51  C         -9.7700  -47.2650 -103.2980 C.2    60  GLY60       0.2640
     52  O        -10.2930  -48.2890 -102.8670 O.2    60  GLY60      -0.2714
     53  N         -9.8080  -46.9100 -104.6010 N.am   61  SER61      -0.1935
     54  CA       -10.5960  -47.6770 -105.5530 C.3    61  SER61       0.2055
     55  C        -10.2040  -49.1380 -105.6150 C.2    61  SER61       0.2642
     56  O        -11.0510  -50.0240 -105.4400 O.2    61  SER61      -0.2714
     57  CB       -10.4200  -47.0360 -106.9550 C.3    61  SER61       0.2130
     58  OG       -11.1190  -47.7810 -107.9370 O.3    61  SER61      -0.2179
     59  N         -8.9150  -49.4500 -105.8870 N.am   62  ALA62      -0.1977
     60  CA        -8.5380  -50.8560 -106.0230 C.3    62  ALA62       0.1597
     61  C         -8.7130  -51.5830 -104.6840 C.2    62  ALA62       0.2287
     62  O         -9.0400  -52.7730 -104.7030 O.2    62  ALA62      -0.2864
     63  CB        -7.1080  -51.0280 -106.5180 C.3    62  ALA62       0.0319
     64  N        -10.9410  -50.9860 -102.4380 N.3    64  ASN64      -0.1240
     65  CA       -12.3540  -51.3350 -102.3440 C.3    64  ASN64       0.1653
     66  C        -12.6660  -52.6190 -103.1170 C.2    64  ASN64       0.2266
     67  O        -13.3760  -53.4960 -102.6460 O.2    64  ASN64      -0.2867
     68  CB       -13.2820  -50.2360 -102.8390 C.3    64  ASN64       0.1155
     69  CG       -13.3070  -49.0000 -101.9740 C.2    64  ASN64       0.2627
     70  OD1      -12.9700  -49.1020 -100.7780 O.2    64  ASN64      -0.2716
     71  ND2      -13.6880  -47.8750 -102.5800 N.am   64  ASN64      -0.0877
     72  N         -9.2310  -39.4320  -98.0790 N.3   118  CYS118     -0.1235
     73  CA       -10.3030  -38.9030  -98.8850 C.3   118  CYS118      0.1677
     74  C        -11.4110  -38.4260  -97.9300 C.2   118  CYS118      0.2270
     75  O        -11.9530  -39.2540  -97.1900 O.2   118  CYS118     -0.2867
     76  CB       -10.8360  -39.9410  -99.8520 C.3   118  CYS118      0.0956
     77  SG       -12.2750  -39.4370 -100.7940 S.3   118  CYS118     -0.0801
     78  N        -16.2540  -35.4170 -102.8110 N.3   129  LEU129     -0.1245
     79  CA       -15.0420  -36.1370 -102.4100 C.3   129  LEU129      0.1561
     80  C        -13.8270  -35.2460 -102.6600 C.2   129  LEU129      0.2260
     81  O        -13.7750  -34.6310 -103.7330 O.2   129  LEU129     -0.2867
     82  CB       -14.8450  -37.4490 -103.1720 C.3   129  LEU129      0.0270
     83  CG       -15.5430  -38.6690 -102.5650 C.3   129  LEU129      0.0019
     84  CD1      -17.0440  -38.4350 -102.5170 C.3   129  LEU129      0.0001
     85  CD2      -15.1740  -39.8930 -103.3690 C.3   129  LEU129      0.0001
     86  N         -9.6300  -35.6600 -102.2180 N.3   131  THR131     -0.1218
     87  CA        -8.6080  -36.6530 -101.9150 C.3   131  THR131      0.1862
     88  C         -7.2290  -36.0590 -101.9160 C.2   131  THR131      0.2287
     89  O         -6.9320  -35.1820 -102.7730 O.2   131  THR131     -0.2866
     90  CB        -8.6920  -37.7720 -102.9920 C.3   131  THR131      0.1770
     91  OG1       -9.9740  -38.4030 -102.8960 O.3   131  THR131     -0.2211
     92  CG2       -7.6390  -38.8470 -102.7540 C.3   131  THR131      0.0375
     93  N         -3.4160  -37.5650 -102.0660 N.3   133  LEU133     -0.1245
     94  CA        -2.7950  -38.8600 -102.2590 C.3   133  LEU133      0.1561
     95  C         -1.5900  -39.0910 -101.3570 C.2   133  LEU133      0.2260
     96  O         -1.3430  -40.2380 -100.9750 O.2   133  LEU133     -0.2867
     97  CB        -2.4050  -38.9790 -103.7320 C.3   133  LEU133      0.0270
     98  CG        -3.6030  -39.1610 -104.6650 C.3   133  LEU133      0.0019
     99  CD1       -3.1890  -39.0090 -106.1370 C.3   133  LEU133      0.0001
    100  CD2       -4.2460  -40.5260 -104.4720 C.3   133  LEU133      0.0001
    101  N         -5.8180  -50.2520 -111.1560 N.3   158  THR158     -0.1218
    102  CA        -6.5750  -49.1080 -111.6120 C.3   158  THR158      0.1862
    103  C         -5.6870  -48.1750 -112.4010 C.2   158  THR158      0.2287
    104  O         -4.4630  -48.0600 -112.1400 O.2   158  THR158     -0.2866
    105  CB        -7.1450  -48.3520 -110.3780 C.3   158  THR158      0.1770
    106  OG1       -6.0240  -48.1020 -109.5060 O.3   158  THR158     -0.2211
    107  CG2       -8.1960  -49.1810 -109.6550 C.3   158  THR158      0.0375
    108  N         -5.7660  -45.2240 -111.8840 N.3   160  TYR160     -0.1241
    109  CA        -5.3010  -44.3160 -110.8320 C.3   160  TYR160      0.1605
    110  C         -3.8730  -44.6140 -110.3560 C.2   160  TYR160      0.2264
    111  O         -3.1890  -43.7350 -109.8370 O.2   160  TYR160     -0.2867
    112  CB        -6.2750  -44.4500 -109.6780 C.3   160  TYR160      0.0534
    113  CG        -7.5850  -43.7620 -109.7210 C.ar  160  TYR160     -0.0201
    114  CD1       -8.6920  -44.3400 -109.0770 C.ar  160  TYR160     -0.0009
    115  CD2       -7.8090  -42.5060 -110.3000 C.ar  160  TYR160     -0.0009
    116  CE1       -9.9410  -43.7810 -109.0460 C.ar  160  TYR160      0.0417
    117  CE2       -9.0640  -41.9350 -110.2300 C.ar  160  TYR160      0.0417
    118  CZ       -10.1210  -42.5590 -109.6180 C.ar  160  TYR160      0.1957
    119  OH       -11.3830  -41.9900 -109.5260 O.3   160  TYR160     -0.2866
    120  N         -0.6930  -42.5860 -111.5450 N.3   163  THR163     -0.1218
    121  CA        -0.3460  -41.2670 -110.9770 C.3   163  THR163      0.1862
    122  C          0.8530  -41.3690 -110.0500 C.2   163  THR163      0.2287
    123  O          1.4110  -40.2990 -109.7120 O.2   163  THR163     -0.2866
    124  CB        -1.4970  -40.6120 -110.2030 C.3   163  THR163      0.1770
    125  OG1       -1.8750  -41.4180 -109.0850 O.3   163  THR163     -0.2211
    126  CG2       -2.7330  -40.4280 -111.0970 C.3   163  THR163      0.0375
    127  N         -9.5490  -38.1640 -116.6270 N.3   192  PHE192     -0.1241
    128  CA        -8.2250  -37.5260 -116.7050 C.3   192  PHE192      0.1605
    129  C         -7.1310  -38.5610 -116.8980 C.2   192  PHE192      0.2264
    130  O         -6.0920  -38.2720 -117.4830 O.2   192  PHE192     -0.2867
    131  CB        -7.9440  -36.6140 -115.5070 C.3   192  PHE192      0.0534
    132  CG        -7.3970  -37.3110 -114.2590 C.ar  192  PHE192     -0.0203
    133  CD1       -6.0500  -37.4950 -114.0040 C.ar  192  PHE192     -0.0042
    134  CD2       -8.2840  -37.7770 -113.3050 C.ar  192  PHE192     -0.0042
    135  CE1       -5.5850  -38.1330 -112.8690 C.ar  192  PHE192     -0.0003
    136  CE2       -7.8530  -38.4300 -112.1560 C.ar  192  PHE192     -0.0003
    137  CZ        -6.5050  -38.5940 -111.9320 C.ar  192  PHE192     -0.0000
    138  N        -21.2120  -43.4350 -105.6900 N.3   305  ASN305     -0.1225
    139  CA       -19.7670  -43.5770 -105.5510 C.3   305  ASN305      0.1785
    140  C        -19.4790  -44.9890 -105.0650 C.2   305  ASN305      0.2597
    141  O        -20.1820  -45.5230 -104.1910 O.2   305  ASN305     -0.2718
    142  CB       -19.1490  -42.5910 -104.5680 C.3   305  ASN305      0.1169
    143  CG       -19.0680  -41.1810 -105.1160 C.2   305  ASN305      0.2627
    144  OD1      -18.1050  -40.8290 -105.8030 O.2   305  ASN305     -0.2716
    145  ND2      -20.0500  -40.3580 -104.8000 N.am  305  ASN305     -0.0877
    146  N        -18.4200  -45.5760 -105.5820 N.am  306  GLY306     -0.1957
    147  CA       -18.0690  -46.9290 -105.1670 C.3   306  GLY306      0.1869
    148  C        -18.7800  -48.0450 -105.9160 C.2   306  GLY306      0.2309
    149  O        -18.3870  -49.2310 -105.7580 O.2   306  GLY306     -0.2863
    150  N        -16.3050  -49.6580 -108.2930 N.3   309  ASP309     -0.1239
    151  CA       -15.3120  -50.4470 -107.5790 C.3   309  ASP309      0.1674
    152  C        -15.8760  -51.8060 -107.1710 C.2   309  ASP309      0.2266
    153  O        -15.1710  -52.8440 -107.2180 O.2   309  ASP309     -0.2867
    154  CB       -14.8380  -49.7380 -106.3070 C.3   309  ASP309      0.1410
    155  CG       -14.1690  -48.4070 -106.5700 C.2   309  ASP309      0.3668
    156  OD1      -13.7440  -48.1150 -107.7060 O.co2 309  ASP309     -0.2456
    157  OD2      -14.0420  -47.6130 -105.5970 O.co2 309  ASP309     -0.2456
    158  N        -18.7730  -48.0010  -98.9110 N.3   345  PHE345     -0.1241
    159  CA       -18.3400  -48.5710 -100.1990 C.3   345  PHE345      0.1605
    160  C        -18.0060  -50.0430 -100.0540 C.2   345  PHE345      0.2264
    161  O        -17.3210  -50.6440 -100.8960 O.2   345  PHE345     -0.2867
    162  CB       -17.1240  -47.8490 -100.8190 C.3   345  PHE345      0.0534
    163  CG       -17.3770  -46.3370 -100.9460 C.ar  345  PHE345     -0.0203
    164  CD1      -16.3890  -45.4710 -100.5360 C.ar  345  PHE345     -0.0042
    165  CD2      -18.5580  -45.8220 -101.4610 C.ar  345  PHE345     -0.0042
    166  CE1      -16.5440  -44.1000 -100.6260 C.ar  345  PHE345     -0.0003
    167  CE2      -18.7320  -44.4650 -101.5520 C.ar  345  PHE345     -0.0003
    168  CZ       -17.7310  -43.5940 -101.1470 C.ar  345  PHE345     -0.0000
@<TRIPOS>BOND
     1   130   129    2
     2   129   128    1
     3   128   127    1
     4   128   131    1
     5   131   132    1
     6   132   133   ar
     7   132   134   ar
     8   133   135   ar
     9   134   136   ar
    10   135   137   ar
    11   103   104    2
    12   103   102    1
    13   136   137   ar
    14   108   109    1
    15   102   101    1
    16   102   105    1
    17   120   121    1
    18   126   124    1
    19   121   124    1
    20   121   122    1
    21   109   110    1
    22   109   112    1
    23   105   107    1
    24   105   106    1
    25   110   111    2
    26   115   117   ar
    27   115   113   ar
    28   117   118   ar
    29   124   125    1
    30   122   123    2
    31   113   112    1
    32   113   114   ar
    33   118   119    1
    34   118   116   ar
    35   114   116   ar
    36    28    27    2
    37   150   151    1
    38    43    42    1
    39    58    57    1
    40   156   155   ar
    41    36    34    1
    42   151   152    1
    43   151   154    1
    44    25    26    1
    45    27    26    1
    46    27    30   am
    47   153   152    2
    48    42    41    1
    49    42    44    1
    50    29    26    1
    51    57    54    1
    52     8     6   am
    53    31    34    1
    54    31    30    1
    55    31    32    1
    56    34    35    1
    57   155   154    1
    58   155   157   ar
    59    63    60    1
    60    41    38    1
    61    37    32   am
    62    37    38    1
    63    99    98    1
    64    60    59    1
    65    60    61    1
    66     7     6    2
    67   148   149    2
    68   148   147    1
    69    59    55   am
    70    32    33    2
    71     6     5    1
    72   144   143    2
    73   138   139    1
    74    55    54    1
    75    55    56    2
    76   146   147    1
    77   146   140   am
    78    54    53    1
    79   139   140    1
    80   139   142    1
    81    38    39    1
    82    40    39    2
    83   143   145   am
    84   143   142    1
    85   140   141    2
    86     1     2    1
    87    62    61    2
    88    98   100    1
    89    98    97    1
    90    53    51   am
    91     5     2    1
    92     2     3    1
    93    81    80    2
    94    97    94    1
    95    85    83    1
    96    51    52    2
    97    51    50    1
    98    82    83    1
    99    82    79    1
   100    66    67    2
   101    66    65    1
   102    90    91    1
   103    90    92    1
   104    90    87    1
   105    68    65    1
   106    68    69    1
   107    78    79    1
   108    89    88    2
   109    80    79    1
   110     4     3    2
   111    71    69   am
   112    83    84    1
   113    64    65    1
   114    16    14    1
   115    50    49    1
   116    94    93    1
   117    94    95    1
   118    86    87    1
   119    69    70    2
   120    88    87    1
   121   167   165   ar
   122   167   168   ar
   123   165   163   ar
   124    95    96    2
   125    49    47   am
   126   168   166   ar
   127    14    13    1
   128   163   162    1
   129   163   164   ar
   130   161   160    2
   131   162   159    1
   132    77    76    1
   133   166   164   ar
   134   159   160    1
   135   159   158    1
   136    47    48    2
   137    47    46    1
   138    13    15    1
   139    13    10    1
   140    76    73    1
   141     9    10    1
   142    46    45    1
   143    24    22   ar
   144    23    22   ar
   145    10    11    1
   146    73    72    1
   147    73    74    1
   148    22    21    1
   149    74    75    2
   150    12    11    2
   151    21    18    1
   152    18    17    1
   153    18    19    1
   154    19    20    2
