@<TRIPOS>MOLECULE
tmp/2aa0A01.pdb
 137 129 0 0 0
SMALL
GASTEIGER

@<TRIPOS>ATOM
      1  N        -19.6590  -50.4990 -118.4170 N.3   269  THR269     -0.1203
      2  CA       -20.8360  -50.3900 -117.5590 C.3   269  THR269      0.1994
      3  C        -21.5490  -49.1360 -118.0490 C.2   269  THR269      0.2618
      4  O        -20.9040  -48.1760 -118.4750 O.2   269  THR269     -0.2717
      5  CB       -20.4680  -50.2390 -116.0630 C.3   269  THR269      0.1784
      6  OG1      -19.6640  -49.0720 -115.8770 O.3   269  THR269     -0.2211
      7  CG2      -19.6980  -51.4650 -115.5740 C.3   269  THR269      0.0376
      8  N        -22.8760  -49.1440 -118.0000 N.am  270  ARG270     -0.1965
      9  CA       -23.6530  -48.0090 -118.4840 C.3   270  ARG270      0.1729
     10  C        -24.7660  -47.5900 -117.5280 C.2   270  ARG270      0.2617
     11  O        -25.9110  -47.4040 -117.9430 O.2   270  ARG270     -0.2715
     12  CB       -24.2490  -48.3500 -119.8540 C.3   270  ARG270      0.0348
     13  CG       -23.2070  -48.6620 -120.9160 C.3   270  ARG270      0.0492
     14  CD       -23.8030  -49.4830 -122.0540 C.3   270  ARG270      0.2205
     15  NE       -24.6780  -48.7100 -122.9320 N.pl3 270  ARG270     -0.0865
     16  CZ       -25.8510  -49.1470 -123.3890 C.cat 270  ARG270      0.5346
     17  NH1      -26.3020  -50.3460 -123.0440 N.pl3 270  ARG270      0.1354
     18  NH2      -26.5660  -48.3960 -124.2160 N.pl3 270  ARG270      0.1354
     19  N        -24.4240  -47.4320 -116.2530 N.am  271  GLY271     -0.1940
     20  CA       -25.4140  -47.0260 -115.2700 C.3   271  GLY271      0.2014
     21  C        -26.5720  -47.9990 -115.1650 C.2   271  GLY271      0.2638
     22  O        -26.3670  -49.1880 -114.9110 O.2   271  GLY271     -0.2714
     23  N        -27.7930  -47.5050 -115.3540 N.am  272  HIS272     -0.1973
     24  CA       -28.9640  -48.3670 -115.2680 C.3   272  HIS272      0.1656
     25  C        -29.1800  -49.1610 -116.5530 C.2   272  HIS272      0.2291
     26  O        -29.9070  -50.1560 -116.5510 O.2   272  HIS272     -0.2864
     27  CB       -30.2240  -47.5540 -114.9410 C.3   272  HIS272      0.0771
     28  CG       -30.7800  -46.7960 -116.1060 C.ar  272  HIS272      0.0820
     29  ND1      -30.1600  -45.6870 -116.6390 N.ar  272  HIS272     -0.2267
     30  CD2      -31.8940  -46.9980 -116.8480 C.ar  272  HIS272      0.1154
     31  CE1      -30.8690  -45.2370 -117.6590 C.ar  272  HIS272      0.1986
     32  NE2      -31.9260  -46.0150 -117.8070 N.ar  272  HIS272     -0.2212
     33  N        -25.2080  -53.6810 -119.4070 N.3   275  VAL275     -0.1245
     34  CA       -23.7660  -53.6850 -119.5590 C.3   275  VAL275      0.1561
     35  C        -23.4850  -54.2530 -120.9480 C.2   275  VAL275      0.2260
     36  O        -24.1390  -55.2060 -121.3820 O.2   275  VAL275     -0.2867
     37  CB       -23.0870  -54.5750 -118.4940 C.3   275  VAL275      0.0252
     38  CG1      -21.5980  -54.6950 -118.7920 C.3   275  VAL275      0.0019
     39  CG2      -23.3040  -53.9800 -117.1070 C.3   275  VAL275      0.0019
     40  N        -29.4200  -54.7880 -116.4760 N.3   293  VAL293     -0.1231
     41  CA       -29.1790  -54.5020 -115.0700 C.3   293  VAL293      0.1678
     42  C        -30.5060  -54.5050 -114.3200 C.2   293  VAL293      0.2434
     43  O        -31.4420  -53.8010 -114.6980 O.2   293  VAL293     -0.2733
     44  CB       -28.5070  -53.1270 -114.8870 C.3   293  VAL293      0.0265
     45  CG1      -28.4030  -52.7930 -113.4110 C.3   293  VAL293      0.0020
     46  CG2      -27.1250  -53.1370 -115.5260 C.3   293  VAL293      0.0020
     47  N        -30.6060  -55.3100 -113.2510 N.am  294  PRO294     -0.2718
     48  CA       -31.8440  -55.3770 -112.4690 C.3   294  PRO294      0.1535
     49  C        -32.2920  -53.9790 -112.0550 C.2   294  PRO294      0.2598
     50  O        -31.4930  -53.1840 -111.5560 O.2   294  PRO294     -0.2715
     51  CB       -31.4490  -56.2400 -111.2740 C.3   294  PRO294      0.0310
     52  CG       -30.4370  -57.1690 -111.8640 C.3   294  PRO294      0.0237
     53  CD       -29.5930  -56.2300 -112.7070 C.3   294  PRO294      0.0939
     54  N        -33.5680  -53.6840 -112.2730 N.am  295  VAL295     -0.1964
     55  CA       -34.1190  -52.3790 -111.9330 C.3   295  VAL295      0.1727
     56  C        -34.1060  -52.1120 -110.4330 C.2   295  VAL295      0.2616
     57  O        -34.3720  -53.0030 -109.6290 O.2   295  VAL295     -0.2715
     58  CB       -35.5760  -52.2400 -112.4430 C.3   295  VAL295      0.0290
     59  CG1      -36.1730  -50.9170 -111.9740 C.3   295  VAL295      0.0023
     60  CG2      -35.6040  -52.3210 -113.9650 C.3   295  VAL295      0.0023
     61  N        -33.7820  -50.8770 -110.0640 N.am  296  VAL296     -0.1977
     62  CA       -33.7640  -50.4700 -108.6650 C.3   296  VAL296      0.1596
     63  C        -34.3430  -49.0610 -108.5690 C.2   296  VAL296      0.2287
     64  O        -33.7950  -48.1140 -109.1360 O.2   296  VAL296     -0.2864
     65  CB       -32.3340  -50.4810 -108.0790 C.3   296  VAL296      0.0276
     66  CG1      -31.4570  -49.4980 -108.8220 C.3   296  VAL296      0.0022
     67  CG2      -32.3800  -50.1410 -106.5970 C.3   296  VAL296      0.0022
     68  N        -35.2470  -45.4150 -107.9640 N.3   298  ALA298     -0.1245
     69  CA       -34.3630  -44.2880 -107.6860 C.3   298  ALA298      0.1562
     70  C        -34.4570  -43.8710 -106.2230 C.2   298  ALA298      0.2260
     71  O        -33.5490  -43.2290 -105.6920 O.2   298  ALA298     -0.2867
     72  CB       -34.7160  -43.1120 -108.5880 C.3   298  ALA298      0.0290
     73  N        -31.7870  -45.7010 -104.0980 N.3   301  ILE301     -0.1245
     74  CA       -30.3900  -45.4280 -104.4110 C.3   301  ILE301      0.1561
     75  C        -29.8150  -44.3910 -103.4560 C.2   301  ILE301      0.2260
     76  O        -30.2210  -43.2300 -103.4670 O.2   301  ILE301     -0.2867
     77  CB       -30.2340  -44.9130 -105.8550 C.3   301  ILE301      0.0252
     78  CG1      -30.8270  -45.9300 -106.8330 C.3   301  ILE301      0.0019
     79  CG2      -28.7630  -44.6600 -106.1620 C.3   301  ILE301      0.0019
     80  CD1      -30.2420  -47.3250 -106.7010 C.3   301  ILE301      0.0001
     81  N        -24.1330  -43.5560 -105.9300 N.3   304  THR304     -0.1218
     82  CA       -23.5410  -44.3930 -106.9690 C.3   304  THR304      0.1862
     83  C        -22.0220  -44.4960 -106.8610 C.2   304  THR304      0.2287
     84  O        -21.3880  -45.2130 -107.6360 O.2   304  THR304     -0.2866
     85  CB       -23.9040  -43.8900 -108.3830 C.3   304  THR304      0.1770
     86  OG1      -23.3900  -42.5660 -108.5750 O.3   304  THR304     -0.2211
     87  CG2      -25.4140  -43.8820 -108.5690 C.3   304  THR304      0.0375
     88  N        -19.8690  -47.9690 -106.8530 N.3   307  ALA307     -0.1231
     89  CA       -20.5800  -48.9920 -107.6110 C.3   307  ALA307      0.1694
     90  C        -19.6310  -49.6560 -108.5970 C.2   307  ALA307      0.2592
     91  O        -19.6380  -50.8750 -108.7640 O.2   307  ALA307     -0.2718
     92  CB       -21.7530  -48.3690 -108.3570 C.3   307  ALA307      0.0304
     93  N        -18.8140  -48.8410 -109.2500 N.am  308  GLY308     -0.1957
     94  CA       -17.8730  -49.3680 -110.2180 C.3   308  GLY308      0.1869
     95  C        -16.8620  -50.3110 -109.5980 C.2   308  GLY308      0.2309
     96  O        -16.5790  -51.3740 -110.1550 O.2   308  GLY308     -0.2863
     97  N        -18.5570  -53.5250 -108.7470 N.3   311  PHE311     -0.1241
     98  CA       -18.8360  -54.2800 -109.9630 C.3   311  PHE311      0.1605
     99  C        -17.6050  -55.0940 -110.3530 C.2   311  PHE311      0.2264
    100  O        -17.7020  -56.2910 -110.6190 O.2   311  PHE311     -0.2867
    101  CB       -19.1900  -53.3420 -111.1200 C.3   311  PHE311      0.0534
    102  CG       -19.3360  -54.0460 -112.4450 C.ar  311  PHE311     -0.0203
    103  CD1      -20.5470  -54.6280 -112.8090 C.ar  311  PHE311     -0.0042
    104  CD2      -18.2470  -54.1680 -113.3080 C.ar  311  PHE311     -0.0042
    105  CE1      -20.6750  -55.3240 -114.0110 C.ar  311  PHE311     -0.0003
    106  CE2      -18.3620  -54.8640 -114.5140 C.ar  311  PHE311     -0.0003
    107  CZ       -19.5780  -55.4440 -114.8670 C.ar  311  PHE311     -0.0000
    108  N        -22.8640  -57.0010 -111.2420 N.3   333  ASN333     -0.1240
    109  CA       -24.0920  -56.2190 -111.0920 C.3   333  ASN333      0.1653
    110  C        -24.6810  -56.4020 -109.6940 C.2   333  ASN333      0.2266
    111  O        -25.1090  -55.4340 -109.0590 O.2   333  ASN333     -0.2867
    112  CB       -25.1320  -56.6430 -112.1360 C.3   333  ASN333      0.1155
    113  CG       -24.9200  -55.9870 -113.4940 C.2   333  ASN333      0.2627
    114  OD1      -25.5660  -56.3580 -114.4740 O.2   333  ASN333     -0.2716
    115  ND2      -24.0290  -55.0060 -113.5560 N.am  333  ASN333     -0.0877
    116  N        -22.5850  -54.4670 -107.1910 N.3   336  ALA336     -0.1231
    117  CA       -22.7770  -53.0380 -107.3760 C.3   336  ALA336      0.1694
    118  C        -24.1370  -52.6290 -106.8160 C.2   336  ALA336      0.2591
    119  O        -24.2680  -51.5980 -106.1560 O.2   336  ALA336     -0.2718
    120  CB       -22.6980  -52.6920 -108.8540 C.3   336  ALA336      0.0304
    121  N        -25.1470  -53.4520 -107.0780 N.am  337  GLN337     -0.1979
    122  CA       -26.4990  -53.1660 -106.6130 C.3   337  GLN337      0.1601
    123  C        -26.5730  -53.1300 -105.0920 C.2   337  GLN337      0.2287
    124  O        -27.3000  -52.3190 -104.5170 O.2   337  GLN337     -0.2864
    125  CB       -27.4740  -54.2060 -107.1680 C.3   337  GLN337      0.0394
    126  CG       -28.7000  -53.5960 -107.8170 C.3   337  GLN337      0.0908
    127  CD       -28.9880  -54.1830 -109.1850 C.2   337  GLN337      0.2608
    128  OE1      -29.1890  -55.3870 -109.3250 O.2   337  GLN337     -0.2717
    129  NE2      -29.0090  -53.3290 -110.2050 N.am  337  GLN337     -0.0878
    130  N        -24.7390  -49.6700 -103.7310 N.3   340  ILE340     -0.1245
    131  CA       -25.4050  -48.3900 -103.9630 C.3   340  ILE340      0.1561
    132  C        -26.6690  -48.1800 -103.1340 C.2   340  ILE340      0.2260
    133  O        -27.2460  -47.0900 -103.1410 O.2   340  ILE340     -0.2867
    134  CB       -25.7800  -48.2100 -105.4460 C.3   340  ILE340      0.0252
    135  CG1      -26.7970  -49.2750 -105.8580 C.3   340  ILE340      0.0019
    136  CG2      -24.5290  -48.2960 -106.3080 C.3   340  ILE340      0.0019
    137  CD1      -27.3110  -49.1190 -107.2770 C.3   340  ILE340      0.0001
@<TRIPOS>BOND
     1    18    16    1
     2    16    17    1
     3    16    15    2
     4    15    14    1
     5    14    13    1
     6    36    35    2
     7    35    34    1
     8    13    12    1
     9    12     9    1
    10    34    33    1
    11    34    37    1
    12    38    37    1
    13    37    39    1
    14     9     8    1
    15     9    10    1
    16     4     3    2
    17     1     2    1
    18     3     8   am
    19     3     2    1
    20    11    10    2
    21    32    31   ar
    22    32    30   ar
    23    31    29   ar
    24     2     5    1
    25    10    19   am
    26    30    28   ar
    27    29    28   ar
    28    25    26    2
    29    25    24    1
    30    40    41    1
    31    19    20    1
    32    28    27    1
    33     5     6    1
    34     5     7    1
    35    46    44    1
    36    23    24    1
    37    23    21   am
    38    20    21    1
    39    24    27    1
    40    21    22    2
    41    41    44    1
    42    41    42    1
    43    44    45    1
    44   107   106   ar
    45   107   105   ar
    46    43    42    2
    47   106   104   ar
    48   114   113    2
    49    42    47   am
    50   105   103   ar
    51    60    58    1
    52   115   113   am
    53   113   112    1
    54   104   102   ar
    55    47    53    1
    56    47    48    1
    57   103   102   ar
    58    53    52    1
    59    48    49    1
    60    48    51    1
    61   102   101    1
    62    58    59    1
    63    58    55    1
    64    54    49   am
    65    54    55    1
    66   112   109    1
    67    49    50    2
    68    55    56    1
    69    52    51    1
    70   108   109    1
    71   101    98    1
    72   109   110    1
    73   100    99    2
    74    56    61   am
    75    56    57    2
    76    99    98    1
    77    94    95    1
    78    94    93    1
    79   129   127   am
    80    96    95    2
    81    61    62    1
    82    98    97    1
    83   110   111    2
    84   128   127    2
    85    93    90   am
    86   127   126    1
    87    64    63    2
    88   120   117    1
    89    66    65    1
    90    91    90    2
    91    62    63    1
    92    62    65    1
    93    90    89    1
    94    72    69    1
    95    86    85    1
    96    87    85    1
    97    85    82    1
    98    92    89    1
    99    65    67    1
   100    68    69    1
   101   126   125    1
   102    69    70    1
   103    84    83    2
   104    89    88    1
   105   117   116    1
   106   117   118    1
   107   137   135    1
   108   125   122    1
   109   121   118   am
   110   121   122    1
   111    82    83    1
   112    82    81    1
   113    78    80    1
   114    78    77    1
   115   118   119    2
   116   122   123    1
   117   136   134    1
   118    70    71    2
   119    79    77    1
   120   135   134    1
   121    77    74    1
   122   134   131    1
   123   123   124    2
   124    74    73    1
   125    74    75    1
   126   131   130    1
   127   131   132    1
   128    76    75    2
   129   133   132    2
