@<TRIPOS>MOLECULE
tmp/2aa2A01.pdb
 192 179 0 0 0
SMALL
GASTEIGER

@<TRIPOS>ATOM
      1  N         12.3440   77.8840   19.7840 N.3    40  LEU40      -0.1245
      2  CA        13.2640   77.2230   20.7120 C.3    40  LEU40       0.1561
      3  C         12.5160   76.1670   21.5250 C.2    40  LEU40       0.2260
      4  O         13.0400   75.0900   21.7850 O.2    40  LEU40      -0.2867
      5  CB        13.9440   78.2500   21.6290 C.3    40  LEU40       0.0270
      6  CG        14.8800   79.2600   20.9360 C.3    40  LEU40       0.0019
      7  CD1       15.5380   80.1410   22.0080 C.3    40  LEU40       0.0001
      8  CD2       15.9670   78.5340   20.1100 C.3    40  LEU40       0.0001
      9  N         12.0110   73.2010   19.2640 N.3    43  LEU43      -0.1231
     10  CA        13.2560   72.4750   19.0770 C.3    43  LEU43       0.1693
     11  C         13.5830   71.6450   20.3150 C.2    43  LEU43       0.2592
     12  O         14.0780   70.5350   20.2020 O.2    43  LEU43      -0.2718
     13  CB        14.4070   73.4440   18.7700 C.3    43  LEU43       0.0284
     14  CG        14.3990   74.1120   17.3830 C.3    43  LEU43       0.0019
     15  CD1       15.5500   75.0910   17.2950 C.3    43  LEU43       0.0001
     16  CD2       14.5360   73.0540   16.2790 C.3    43  LEU43       0.0001
     17  N         13.3220   72.1810   21.5030 N.am   44  ASN44      -0.1974
     18  CA        13.6130   71.4360   22.7140 C.3    44  ASN44       0.1688
     19  C         12.7020   70.2020   22.7990 C.2    44  ASN44       0.2292
     20  O         13.1070   69.1410   23.2950 O.2    44  ASN44      -0.2864
     21  CB        13.4150   72.3120   23.9560 C.3    44  ASN44       0.1181
     22  CG        14.5030   73.3290   24.1160 C.2    44  ASN44       0.2629
     23  OD1       15.6110   73.1630   23.5890 O.2    44  ASN44      -0.2716
     24  ND2       14.2110   74.3910   24.8490 N.am   44  ASN44      -0.0877
     25  N         11.4510   68.6520   20.1990 N.3    46  LEU46      -0.1231
     26  CA        11.9700   67.7240   19.2070 C.3    46  LEU46       0.1693
     27  C         13.1660   66.9630   19.7940 C.2    46  LEU46       0.2591
     28  O         13.2780   65.7460   19.6180 O.2    46  LEU46      -0.2718
     29  CB        12.3790   68.4650   17.9330 C.3    46  LEU46       0.0284
     30  CG        13.1630   67.6460   16.8720 C.3    46  LEU46       0.0019
     31  CD1       12.3340   66.4700   16.3510 C.3    46  LEU46       0.0001
     32  CD2       13.5830   68.5730   15.7180 C.3    46  LEU46       0.0001
     33  N         14.0320   67.6800   20.5140 N.am   47  ALA47      -0.1980
     34  CA        15.2140   67.0800   21.1320 C.3    47  ALA47       0.1597
     35  C         14.8360   65.9470   22.0900 C.2    47  ALA47       0.2287
     36  O         15.4950   64.8790   22.1100 O.2    47  ALA47      -0.2864
     37  CB        16.0340   68.1630   21.8790 C.3    47  ALA47       0.0319
     38  N         13.8490   62.9170   20.0810 N.3    50  GLN50      -0.1245
     39  CA        15.0340   62.3010   19.4740 C.3    50  GLN50       0.1566
     40  C         15.8800   61.5380   20.5010 C.2    50  GLN50       0.2260
     41  O         16.3580   60.4250   20.2180 O.2    50  GLN50      -0.2867
     42  CB        15.9260   63.3550   18.8230 C.3    50  GLN50       0.0367
     43  CG        15.3610   64.0850   17.6460 C.3    50  GLN50       0.0905
     44  CD        16.3060   65.1950   17.1810 C.2    50  GLN50       0.2608
     45  OE1       17.1760   65.6150   17.9370 O.2    50  GLN50      -0.2717
     46  NE2       16.1190   65.6780   15.9640 N.am   50  GLN50      -0.0878
     47  N         24.9720   64.0890   24.3530 N.3    80  TRP80      -0.1227
     48  CA        23.7060   64.3570   23.6830 C.3    80  TRP80       0.1737
     49  C         23.7140   65.5220   22.6980 C.2    80  TRP80       0.2595
     50  O         23.1910   65.3900   21.5930 O.2    80  TRP80      -0.2718
     51  CB        22.5700   64.5280   24.7120 C.3    80  TRP80       0.0564
     52  CG        22.4980   65.8800   25.3420 C.ar   80  TRP80       0.0003
     53  CD1       23.2480   66.3430   26.3850 C.ar   80  TRP80       0.0946
     54  CD2       21.6200   66.9460   24.9700 C.ar   80  TRP80       0.0152
     55  NE1       22.8810   67.6340   26.6900 N.ar   80  TRP80      -0.2442
     56  CE2       21.8790   68.0250   25.8380 C.ar   80  TRP80       0.0810
     57  CE3       20.6260   67.0930   23.9750 C.ar   80  TRP80       0.0012
     58  CZ2       21.1780   69.2490   25.7540 C.ar   80  TRP80       0.0191
     59  CZ3       19.9510   68.2880   23.8930 C.ar   80  TRP80       0.0001
     60  CH2       20.2280   69.3570   24.7780 C.ar   80  TRP80       0.0015
     61  N         24.2990   66.6720   23.0780 N.am   81  MET81      -0.1979
     62  CA        24.3320   67.8290   22.1640 C.3    81  MET81       0.1605
     63  C         25.2020   67.5590   20.9210 C.2    81  MET81       0.2287
     64  O         24.8890   67.9760   19.7950 O.2    81  MET81      -0.2864
     65  CB        24.8580   69.0660   22.8980 C.3    81  MET81       0.0413
     66  CG        24.8100   70.3280   22.0570 C.3    81  MET81       0.0598
     67  SD        23.1330   70.7710   21.5520 S.3    81  MET81      -0.1393
     68  CE        22.5140   71.4940   23.0580 C.3    81  MET81       0.0692
     69  N         23.2210   65.2640   18.6600 N.3    84  SER84      -0.1202
     70  CA        22.1180   66.0190   18.0710 C.3    84  SER84       0.2020
     71  C         22.5760   66.8820   16.9210 C.2    84  SER84       0.2619
     72  O         21.9620   66.8710   15.8420 O.2    84  SER84      -0.2717
     73  CB        21.4760   66.9310   19.1170 C.3    84  SER84       0.2103
     74  OG        20.9910   66.1750   20.2090 O.3    84  SER84      -0.2182
     75  N         23.6410   67.6600   17.1470 N.am   85  SER85      -0.1951
     76  CA        24.0990   68.5660   16.1080 C.3    85  SER85       0.1924
     77  C         24.6850   67.8210   14.9450 C.2    85  SER85       0.2314
     78  O         24.4360   68.2070   13.7980 O.2    85  SER85      -0.2863
     79  CB        25.1070   69.5950   16.6430 C.3    85  SER85       0.2116
     80  OG        26.2340   68.9650   17.2210 O.3    85  SER85      -0.2180
     81  N         21.9730   66.3570   12.9610 N.3    88  LEU88      -0.1245
     82  CA        21.2880   67.4470   12.2690 C.3    88  LEU88       0.1561
     83  C         22.0360   67.7970   10.9820 C.2    88  LEU88       0.2260
     84  O         21.4320   67.9840    9.9370 O.2    88  LEU88      -0.2867
     85  CB        21.2080   68.6970   13.1470 C.3    88  LEU88       0.0270
     86  CG        20.8130   69.9730   12.3810 C.3    88  LEU88       0.0019
     87  CD1       19.3350   69.8870   11.9000 C.3    88  LEU88       0.0001
     88  CD2       21.0010   71.1830   13.3000 C.3    88  LEU88       0.0001
     89  N         21.4470   65.0310    8.2590 N.3    91  ARG91      -0.1245
     90  CA        20.1360   65.1000    7.6130 C.3    91  ARG91       0.1563
     91  C         20.0260   66.2750    6.6620 C.2    91  ARG91       0.2260
     92  O         19.4390   66.1640    5.5720 O.2    91  ARG91      -0.2867
     93  CB        19.0240   65.1960    8.6630 C.3    91  ARG91       0.0307
     94  CG        18.8490   63.9310    9.4680 C.3    91  ARG91       0.0489
     95  CD        17.5830   64.0240   10.3100 C.3    91  ARG91       0.2205
     96  NE        17.6000   65.1650   11.2300 N.pl3  91  ARG91      -0.0865
     97  CZ        18.0870   65.1280   12.4610 C.cat  91  ARG91       0.5346
     98  NH1       18.6070   64.0090   12.9240 N.pl3  91  ARG91       0.1354
     99  NH2       18.0040   66.1870   13.2490 N.pl3  91  ARG91       0.1354
    100  N         16.0290   69.9030   10.7290 N.3   103  PHE103     -0.1241
    101  CA        15.8480   69.4270   12.0830 C.3   103  PHE103      0.1605
    102  C         14.9210   68.2210   12.0630 C.2   103  PHE103      0.2264
    103  O         15.1530   67.2580   12.7790 O.2   103  PHE103     -0.2867
    104  CB        15.2580   70.5260   12.9920 C.3   103  PHE103      0.0534
    105  CG        16.2390   71.6160   13.3530 C.ar  103  PHE103     -0.0203
    106  CD1       16.3480   72.7590   12.5670 C.ar  103  PHE103     -0.0042
    107  CD2       17.0630   71.4800   14.4610 C.ar  103  PHE103     -0.0042
    108  CE1       17.2790   73.7680   12.8760 C.ar  103  PHE103     -0.0003
    109  CE2       17.9930   72.4690   14.7880 C.ar  103  PHE103     -0.0003
    110  CZ        18.1030   73.6270   13.9860 C.ar  103  PHE103     -0.0000
    111  N         19.2770   82.2560   17.6490 N.3   119  MET119     -0.1245
    112  CA        20.5340   81.5330   17.8020 C.3   119  MET119      0.1570
    113  C         21.1120   81.3580   16.3790 C.2   119  MET119      0.2261
    114  O         21.5570   80.2810   15.9690 O.2   119  MET119     -0.2867
    115  CB        20.3110   80.1660   18.4950 C.3   119  MET119      0.0387
    116  CG        19.3750   79.1860   17.7720 C.3   119  MET119      0.0595
    117  SD        19.3680   77.5230   18.5690 S.3   119  MET119     -0.1393
    118  CE        20.8130   76.8150   17.7840 C.3   119  MET119      0.0692
    119  N         24.7370   80.1520   15.9940 N.3   122  LEU122     -0.1245
    120  CA        24.8550   78.7380   16.3290 C.3   122  LEU122      0.1561
    121  C         24.3980   77.8940   15.1560 C.2   122  LEU122      0.2260
    122  O         25.0590   76.9210   14.8040 O.2   122  LEU122     -0.2867
    123  CB        24.0440   78.4120   17.5810 C.3   122  LEU122      0.0270
    124  CG        24.5910   79.0170   18.8810 C.3   122  LEU122      0.0019
    125  CD1       23.6290   78.7510   20.0340 C.3   122  LEU122      0.0001
    126  CD2       25.9560   78.4390   19.1730 C.3   122  LEU122      0.0001
    127  N         26.4390   75.0010   12.8320 N.3   126  MET126     -0.1245
    128  CA        26.0130   73.6490   12.5090 C.3   126  MET126      0.1570
    129  C         25.8490   73.4810   11.0050 C.2   126  MET126      0.2261
    130  O         26.0990   72.3990   10.4600 O.2   126  MET126     -0.2867
    131  CB        24.7140   73.3180   13.2350 C.3   126  MET126      0.0387
    132  CG        24.8870   73.3530   14.7620 C.3   126  MET126      0.0595
    133  SD        23.3670   72.8160   15.6060 S.3   126  MET126     -0.1393
    134  CE        22.2650   74.2150   15.2390 C.3   126  MET126      0.0692
    135  N         27.1070   75.6000   21.7410 N.3   207  LEU207     -0.1245
    136  CA        25.7120   75.1880   21.7640 C.3   207  LEU207      0.1561
    137  C         25.2510   74.9710   23.2160 C.2   207  LEU207      0.2260
    138  O         24.1430   75.3700   23.5810 O.2   207  LEU207     -0.2867
    139  CB        25.5110   73.8830   20.9680 C.3   207  LEU207      0.0270
    140  CG        25.7130   73.8690   19.4410 C.3   207  LEU207      0.0019
    141  CD1       25.5110   72.4120   18.9390 C.3   207  LEU207      0.0001
    142  CD2       24.7290   74.8060   18.7350 C.3   207  LEU207      0.0001
    143  N         24.7000   78.1620   25.3180 N.3   210  PHE210     -0.1227
    144  CA        23.4020   78.7540   25.0060 C.3   210  PHE210      0.1736
    145  C         22.2930   77.8830   25.6210 C.2   210  PHE210      0.2595
    146  O         21.3030   78.3860   26.1650 O.2   210  PHE210     -0.2718
    147  CB        23.2510   78.8200   23.4860 C.3   210  PHE210      0.0547
    148  CG        22.0320   79.5520   23.0250 C.ar  210  PHE210     -0.0202
    149  CD1       22.1330   80.8610   22.5870 C.ar  210  PHE210     -0.0042
    150  CD2       20.7990   78.9360   22.9980 C.ar  210  PHE210     -0.0042
    151  CE1       21.0120   81.5370   22.1230 C.ar  210  PHE210     -0.0003
    152  CE2       19.6750   79.6090   22.5370 C.ar  210  PHE210     -0.0003
    153  CZ        19.7750   80.9010   22.1010 C.ar  210  PHE210     -0.0000
    154  N         22.4470   76.5610   25.5170 N.am  211  CYS211     -0.1970
    155  CA        21.4480   75.6570   26.0960 C.3   211  CYS211      0.1712
    156  C         21.3000   75.8790   27.6150 C.2   211  CYS211      0.2296
    157  O         20.1680   76.0020   28.1430 O.2   211  CYS211     -0.2864
    158  CB        21.8400   74.1940   25.8400 C.3   211  CYS211      0.0983
    159  SG        20.6830   72.9950   26.5340 S.3   211  CYS211     -0.0798
    160  N         19.5330   79.4250   28.3900 N.3   214  THR214     -0.1218
    161  CA        18.0840   79.4630   28.2290 C.3   214  THR214      0.1862
    162  C         17.4420   78.5370   29.2720 C.2   214  THR214      0.2287
    163  O         16.3050   78.7370   29.6780 O.2   214  THR214     -0.2866
    164  CB        17.6460   79.0600   26.7860 C.3   214  THR214      0.1770
    165  OG1       18.0250   77.7130   26.5050 O.3   214  THR214     -0.2211
    166  CG2       18.3090   79.9690   25.7490 C.3   214  THR214      0.0375
    167  N         11.0120   79.8290   27.4840 N.3   223  VAL223     -0.1245
    168  CA        11.4860   78.7260   26.6480 C.3   223  VAL223      0.1561
    169  C         11.1540   77.4360   27.4060 C.2   223  VAL223      0.2260
    170  O         11.5850   77.2380   28.5490 O.2   223  VAL223     -0.2867
    171  CB        13.0100   78.8220   26.3870 C.3   223  VAL223      0.0252
    172  CG1       13.5020   77.5600   25.6430 C.3   223  VAL223      0.0019
    173  CG2       13.3260   80.0600   25.5180 C.3   223  VAL223      0.0019
    174  N         11.0540   73.2890   28.1340 N.3   225  PHE225     -0.1241
    175  CA        11.9070   72.1180   27.9890 C.3   225  PHE225      0.1605
    176  C         11.0990   70.8860   28.4000 C.2   225  PHE225      0.2264
    177  O         10.4120   70.9260   29.4060 O.2   225  PHE225     -0.2867
    178  CB        13.1480   72.1970   28.9080 C.3   225  PHE225      0.0534
    179  CG        14.1810   73.1910   28.4640 C.ar  225  PHE225     -0.0203
    180  CD1       13.9870   74.5630   28.6620 C.ar  225  PHE225     -0.0042
    181  CD2       15.3470   72.7570   27.8380 C.ar  225  PHE225     -0.0042
    182  CE1       14.9450   75.4850   28.2430 C.ar  225  PHE225     -0.0003
    183  CE2       16.3060   73.6780   27.4150 C.ar  225  PHE225     -0.0003
    184  CZ        16.0930   75.0590   27.6270 C.ar  225  PHE225     -0.0000
    185  N         14.7550   66.5030   28.5610 N.3   229  LEU229     -0.1245
    186  CA        15.8530   67.4760   28.5950 C.3   229  LEU229      0.1561
    187  C         16.1010   68.0240   29.9930 C.2   229  LEU229      0.2260
    188  O         17.2510   68.2560   30.3920 O.2   229  LEU229     -0.2867
    189  CB        15.6110   68.6250   27.5870 C.3   229  LEU229      0.0270
    190  CG        16.4480   68.4800   26.3130 C.3   229  LEU229      0.0019
    191  CD1       16.2050   67.1120   25.6960 C.3   229  LEU229      0.0001
    192  CD2       16.1040   69.5970   25.3180 C.3   229  LEU229      0.0001
@<TRIPOS>BOND
     1    92    91    2
     2    91    90    1
     3    90    89    1
     4    90    93    1
     5    93    94    1
     6    94    95    1
     7    84    83    2
     8    95    96    1
     9   130   129    2
    10   100   101    1
    11    83    82    1
    12   129   128    1
    13    96    97    2
    14    87    86    1
    15   102   101    1
    16   102   103    2
    17   101   104    1
    18    82    81    1
    19    82    85    1
    20    86    85    1
    21    86    88    1
    22    97    98    1
    23    97    99    1
    24   128   127    1
    25   128   131    1
    26   106   108   ar
    27   106   105   ar
    28   108   110   ar
    29   104   105    1
    30   131   132    1
    31   105   107   ar
    32    78    77    2
    33   110   109   ar
    34   107   109   ar
    35   132   133    1
    36   122   121    2
    37    77    76    1
    38   121   120    1
    39   134   133    1
    40    32    30    1
    41    72    71    2
    42    46    44   am
    43   114   113    2
    44   119   120    1
    45    76    79    1
    46    76    75    1
    47    16    14    1
    48   120   123    1
    49    31    30    1
    50   113   112    1
    51    79    80    1
    52    30    29    1
    53    71    75   am
    54    71    70    1
    55    44    43    1
    56    44    45    2
    57    15    14    1
    58    14    13    1
    59   123   124    1
    60    43    42    1
    61   111   112    1
    62   116   115    1
    63   116   117    1
    64   118   117    1
    65   112   115    1
    66    29    26    1
    67    70    69    1
    68    70    73    1
    69   142   140    1
    70    13    10    1
    71    42    39    1
    72   124   126    1
    73   124   125    1
    74   141   140    1
    75    10     9    1
    76    10    11    1
    77    73    74    1
    78    26    27    1
    79    26    25    1
    80   140   139    1
    81    39    38    1
    82    39    40    1
    83    28    27    2
    84     1     2    1
    85    27    33   am
    86    64    63    2
    87     8     6    1
    88    12    11    2
    89    41    40    2
    90    11    17   am
    91    33    34    1
    92     2     3    1
    93     2     5    1
    94    63    62    1
    95     6     5    1
    96     6     7    1
    97   139   136    1
    98    34    37    1
    99    34    35    1
   100    17    18    1
   101     3     4    2
   102    67    66    1
   103    67    68    1
   104    50    49    2
   105   135   136    1
   106   136   137    1
   107    66    65    1
   108    35    36    2
   109   153   151   ar
   110   153   152   ar
   111   151   149   ar
   112    62    65    1
   113    62    61    1
   114   152   150   ar
   115   149   148   ar
   116    49    61   am
   117    49    48    1
   118    18    19    1
   119    18    21    1
   120    19    20    2
   121   150   148   ar
   122   148   147    1
   123   137   138    2
   124   147   144    1
   125    23    22    2
   126    48    47    1
   127    48    51    1
   128    59    57   ar
   129    59    60   ar
   130    21    22    1
   131    57    54   ar
   132    22    24   am
   133    51    52    1
   134    60    58   ar
   135    54    52   ar
   136    54    56   ar
   137   144   143    1
   138   144   145    1
   139   192   190    1
   140    52    53   ar
   141   154   145   am
   142   154   155    1
   143   173   171    1
   144   145   146    2
   145   172   171    1
   146   191   190    1
   147   166   164    1
   148    58    56   ar
   149    56    55   ar
   150   158   155    1
   151   158   159    1
   152   155   156    1
   153   190   189    1
   154    53    55   ar
   155   171   168    1
   156   165   164    1
   157   168   169    1
   158   168   167    1
   159   164   161    1
   160   169   170    2
   161   183   184   ar
   162   183   181   ar
   163   189   186    1
   164   156   157    2
   165   184   182   ar
   166   181   179   ar
   167   175   174    1
   168   175   176    1
   169   175   178    1
   170   161   160    1
   171   161   162    1
   172   182   180   ar
   173   176   177    2
   174   179   180   ar
   175   179   178    1
   176   185   186    1
   177   186   187    1
   178   162   163    2
   179   187   188    2
