@<TRIPOS>MOLECULE
tmp/2aa2A00.pdb
 97 90 0 0 0
SMALL
GASTEIGER

@<TRIPOS>ATOM
      1  N         11.2450   83.5570   18.7910 N.3    36  ALA36      -0.1231
      2  CA        12.2920   82.7410   19.4040 C.3    36  ALA36       0.1694
      3  C         11.6900   81.7760   20.4330 C.2    36  ALA36       0.2591
      4  O         11.9710   80.5600   20.4200 O.2    36  ALA36      -0.2718
      5  CB        13.3320   83.6320   20.0560 C.3    36  ALA36       0.0304
      6  N         10.8350   82.3020   21.3050 N.am   37  GLU37      -0.1979
      7  CA        10.2120   81.4880   22.3360 C.3    37  GLU37       0.1602
      8  C          9.5610   80.2040   21.7790 C.2    37  GLU37       0.2287
      9  O          9.7440   79.1120   22.3310 O.2    37  GLU37      -0.2864
     10  CB         9.1740   82.3200   23.1010 C.3    37  GLU37       0.0415
     11  CG         9.8210   83.4250   23.9580 C.3    37  GLU37       0.1163
     12  CD         8.9060   84.6710   24.0510 C.2    37  GLU37       0.3649
     13  OE1        7.7340   84.6210   23.6320 O.co2  37  GLU37      -0.2457
     14  OE2        9.3700   85.7080   24.5160 O.co2  37  GLU37      -0.2457
     15  N         12.3440   77.8840   19.7840 N.3    40  LEU40      -0.1245
     16  CA        13.2640   77.2230   20.7120 C.3    40  LEU40       0.1561
     17  C         12.5160   76.1670   21.5250 C.2    40  LEU40       0.2260
     18  O         13.0400   75.0900   21.7850 O.2    40  LEU40      -0.2867
     19  CB        13.9440   78.2500   21.6290 C.3    40  LEU40       0.0270
     20  CG        14.8800   79.2600   20.9360 C.3    40  LEU40       0.0019
     21  CD1       15.5380   80.1410   22.0080 C.3    40  LEU40       0.0001
     22  CD2       15.9670   78.5340   20.1100 C.3    40  LEU40       0.0001
     23  N         16.7370   83.2330   17.2680 N.3   118  ALA118     -0.1245
     24  CA        17.6060   83.9730   18.1750 C.3   118  ALA118      0.1562
     25  C         18.9290   83.2360   18.4690 C.2   118  ALA118      0.2260
     26  O         19.5900   83.5260   19.4470 O.2   118  ALA118     -0.2867
     27  CB        16.8800   84.3010   19.4890 C.3   118  ALA118      0.0290
     28  N         24.7370   80.1520   15.9940 N.3   122  LEU122     -0.1245
     29  CA        24.8550   78.7380   16.3290 C.3   122  LEU122      0.1561
     30  C         24.3980   77.8940   15.1560 C.2   122  LEU122      0.2260
     31  O         25.0590   76.9210   14.8040 O.2   122  LEU122     -0.2867
     32  CB        24.0440   78.4120   17.5810 C.3   122  LEU122      0.0270
     33  CG        24.5910   79.0170   18.8810 C.3   122  LEU122      0.0019
     34  CD1       23.6290   78.7510   20.0340 C.3   122  LEU122      0.0001
     35  CD2       25.9560   78.4390   19.1730 C.3   122  LEU122      0.0001
     36  N         29.7960   75.8890   22.5080 N.3   206  ASP206     -0.1239
     37  CA        28.9780   77.0700   22.2780 C.3   206  ASP206      0.1674
     38  C         27.4870   76.7390   22.3140 C.2   206  ASP206      0.2266
     39  O         26.6930   77.5260   22.8300 O.2   206  ASP206     -0.2867
     40  CB        29.3150   77.7100   20.9350 C.3   206  ASP206      0.1410
     41  CG        30.6830   78.3650   20.9330 C.2   206  ASP206      0.3668
     42  OD1       31.2720   78.5060   22.0270 O.co2 206  ASP206     -0.2456
     43  OD2       31.1610   78.7360   19.8450 O.co2 206  ASP206     -0.2456
     44  N         26.5540   76.2860   25.9910 N.3   209  GLU209     -0.1231
     45  CA        26.5750   77.5430   26.7060 C.3   209  GLU209      0.1699
     46  C         25.2120   78.2000   26.5350 C.2   209  GLU209      0.2592
     47  O         24.6270   78.7400   27.4840 O.2   209  GLU209     -0.2718
     48  CB        27.6910   78.4220   26.1300 C.3   209  GLU209      0.0402
     49  CG        27.9790   79.6680   26.9180 C.3   209  GLU209      0.1161
     50  CD        29.1990   80.4060   26.3760 C.2   209  GLU209      0.3649
     51  OE1       29.4250   81.5660   26.7760 O.co2 209  GLU209     -0.2457
     52  OE2       29.9350   79.8130   25.5500 O.co2 209  GLU209     -0.2457
     53  N         24.7000   78.1620   25.3180 N.am  210  PHE210     -0.1976
     54  CA        23.4020   78.7540   25.0060 C.3   210  PHE210      0.1639
     55  C         22.2930   77.8830   25.6210 C.2   210  PHE210      0.2290
     56  O         21.3030   78.3860   26.1650 O.2   210  PHE210     -0.2864
     57  CB        23.2510   78.8200   23.4860 C.3   210  PHE210      0.0560
     58  CG        22.0320   79.5520   23.0250 C.ar  210  PHE210     -0.0200
     59  CD1       22.1330   80.8610   22.5870 C.ar  210  PHE210     -0.0042
     60  CD2       20.7990   78.9360   22.9980 C.ar  210  PHE210     -0.0042
     61  CE1       21.0120   81.5370   22.1230 C.ar  210  PHE210     -0.0003
     62  CE2       19.6750   79.6090   22.5370 C.ar  210  PHE210     -0.0003
     63  CZ        19.7750   80.9010   22.1010 C.ar  210  PHE210     -0.0000
     64  N         22.1020   78.5000   29.3630 N.3   213  TYR213     -0.1227
     65  CA        21.6080   79.8510   29.6350 C.3   213  TYR213      0.1736
     66  C         20.0780   79.9060   29.5150 C.2   213  TYR213      0.2596
     67  O         19.3910   80.3830   30.4290 O.2   213  TYR213     -0.2718
     68  CB        22.2330   80.8350   28.6450 C.3   213  TYR213      0.0548
     69  CG        21.5920   82.2060   28.6630 C.ar  213  TYR213     -0.0200
     70  CD1       21.8810   83.1130   29.6850 C.ar  213  TYR213     -0.0009
     71  CD2       20.6640   82.5800   27.6880 C.ar  213  TYR213     -0.0009
     72  CE1       21.2520   84.3680   29.7420 C.ar  213  TYR213      0.0417
     73  CE2       20.0400   83.8190   27.7340 C.ar  213  TYR213      0.0417
     74  CZ        20.3390   84.7070   28.7640 C.ar  213  TYR213      0.1957
     75  OH        19.7290   85.9550   28.7940 O.3   213  TYR213     -0.2866
     76  N         19.5330   79.4250   28.3900 N.am  214  THR214     -0.1953
     77  CA        18.0840   79.4630   28.2290 C.3   214  THR214      0.1897
     78  C         17.4420   78.5370   29.2720 C.2   214  THR214      0.2313
     79  O         16.3050   78.7370   29.6780 O.2   214  THR214     -0.2863
     80  CB        17.6460   79.0600   26.7860 C.3   214  THR214      0.1794
     81  OG1       18.0250   77.7130   26.5050 O.3   214  THR214     -0.2208
     82  CG2       18.3090   79.9690   25.7490 C.3   214  THR214      0.0378
     83  N         12.4900   83.8250   29.8770 N.3   221  LEU221     -0.1245
     84  CA        12.5130   83.7380   28.4190 C.3   221  LEU221      0.1561
     85  C         11.3130   83.0070   27.8460 C.2   221  LEU221      0.2260
     86  O         11.0280   83.1140   26.6630 O.2   221  LEU221     -0.2867
     87  CB        13.7840   83.0400   27.9530 C.3   221  LEU221      0.0270
     88  CG        15.1200   83.6510   28.3980 C.3   221  LEU221      0.0019
     89  CD1       16.2730   82.8000   27.9050 C.3   221  LEU221      0.0001
     90  CD2       15.2300   85.0650   27.8520 C.3   221  LEU221      0.0001
     91  N         11.0120   79.8290   27.4840 N.3   223  VAL223     -0.1245
     92  CA        11.4860   78.7260   26.6480 C.3   223  VAL223      0.1561
     93  C         11.1540   77.4360   27.4060 C.2   223  VAL223      0.2260
     94  O         11.5850   77.2380   28.5490 O.2   223  VAL223     -0.2867
     95  CB        13.0100   78.8220   26.3870 C.3   223  VAL223      0.0252
     96  CG1       13.5020   77.5600   25.6430 C.3   223  VAL223      0.0019
     97  CG2       13.3260   80.0600   25.5180 C.3   223  VAL223      0.0019
@<TRIPOS>BOND
     1    31    30    2
     2    30    29    1
     3    28    29    1
     4    29    32    1
     5    23    24    1
     6    32    33    1
     7    24    25    1
     8    24    27    1
     9    25    26    2
    10     1     2    1
    11    33    35    1
    12    33    34    1
    13     2     5    1
    14     2     3    1
    15    15    16    1
    16    43    41   ar
    17    22    20    1
    18     4     3    2
    19     3     6   am
    20    16    17    1
    21    16    19    1
    22    41    40    1
    23    41    42   ar
    24    40    37    1
    25    20    19    1
    26    20    21    1
    27     6     7    1
    28    17    18    2
    29     8     9    2
    30     8     7    1
    31    63    61   ar
    32    63    62   ar
    33    61    59   ar
    34    37    38    1
    35    37    36    1
    36    38    39    2
    37     7    10    1
    38    62    60   ar
    39    59    58   ar
    40    60    58   ar
    41    58    57    1
    42    10    11    1
    43    57    54    1
    44    13    12   ar
    45    11    12    1
    46    12    14   ar
    47    54    53    1
    48    54    55    1
    49    53    46   am
    50    97    95    1
    51    52    50   ar
    52    55    56    2
    53    96    95    1
    54    82    80    1
    55    44    45    1
    56    48    45    1
    57    48    49    1
    58    50    51   ar
    59    50    49    1
    60    95    92    1
    61    81    80    1
    62    46    45    1
    63    46    47    2
    64    92    93    1
    65    92    91    1
    66    86    85    2
    67    80    77    1
    68    93    94    2
    69    71    73   ar
    70    71    69   ar
    71    73    74   ar
    72    85    84    1
    73    90    88    1
    74    89    88    1
    75    87    88    1
    76    87    84    1
    77    77    76    1
    78    77    78    1
    79    76    66   am
    80    84    83    1
    81    68    69    1
    82    68    65    1
    83    69    70   ar
    84    74    75    1
    85    74    72   ar
    86    78    79    2
    87    64    65    1
    88    66    65    1
    89    66    67    2
    90    70    72   ar
