@<TRIPOS>MOLECULE
tmp/2aa6A00.pdb
 194 181 0 0 0
SMALL
GASTEIGER

@<TRIPOS>ATOM
      1  N         19.2140   55.9700   11.0390 N.3    45  LEU45      -0.1245
      2  CA        20.1380   55.0360   11.7060 C.3    45  LEU45       0.1561
      3  C         20.8490   55.7010   12.8610 C.2    45  LEU45       0.2260
      4  O         21.0500   55.0740   13.9040 O.2    45  LEU45      -0.2867
      5  CB        21.1890   54.4710   10.7080 C.3    45  LEU45       0.0270
      6  CG        20.5920   53.6030    9.5820 C.3    45  LEU45       0.0019
      7  CD1       21.7250   53.0800    8.6510 C.3    45  LEU45       0.0001
      8  CD2       19.8210   52.4530   10.1900 C.3    45  LEU45       0.0001
      9  N         18.3970   55.8120   15.6700 N.3    48  LEU48      -0.1231
     10  CA        18.1820   54.5040   16.2990 C.3    48  LEU48       0.1693
     11  C         19.3850   54.1650   17.1540 C.2    48  LEU48       0.2592
     12  O         19.2340   53.5930   18.2230 O.2    48  LEU48      -0.2718
     13  CB        17.9600   53.4020   15.2450 C.3    48  LEU48       0.0284
     14  CG        16.6530   53.4840   14.4640 C.3    48  LEU48       0.0019
     15  CD1       16.5860   52.3060   13.4490 C.3    48  LEU48       0.0001
     16  CD2       15.4780   53.4370   15.4330 C.3    48  LEU48       0.0001
     17  N         20.5970   54.4860   16.7010 N.am   49  ASN49      -0.1974
     18  CA        21.7710   54.2160   17.5290 C.3    49  ASN49       0.1688
     19  C         21.7370   55.0070   18.8390 C.2    49  ASN49       0.2292
     20  O         22.1550   54.5020   19.8720 O.2    49  ASN49      -0.2864
     21  CB        23.0700   54.5540   16.8010 C.3    49  ASN49       0.1181
     22  CG        23.4260   53.5280   15.7370 C.2    49  ASN49       0.2629
     23  OD1       23.0140   52.3700   15.8250 O.2    49  ASN49      -0.2716
     24  ND2       24.2140   53.9450   14.7440 N.am   49  ASN49      -0.0877
     25  N         19.0450   56.0150   20.3670 N.3    51  LEU51      -0.1231
     26  CA        18.0080   55.3550   21.1530 C.3    51  LEU51       0.1693
     27  C         18.6010   54.0900   21.8070 C.2    51  LEU51       0.2591
     28  O         18.4080   53.8340   23.0060 O.2    51  LEU51      -0.2718
     29  CB        16.8110   55.0020   20.2660 C.3    51  LEU51       0.0284
     30  CG        15.7070   54.1720   20.9580 C.3    51  LEU51       0.0019
     31  CD1       15.0420   54.9740   22.1220 C.3    51  LEU51       0.0001
     32  CD2       14.6410   53.7840   19.9160 C.3    51  LEU51       0.0001
     33  N         19.3470   53.3190   21.0330 N.am   52  ALA52      -0.1980
     34  CA        19.9590   52.1090   21.5650 C.3    52  ALA52       0.1597
     35  C         20.8680   52.3940   22.7590 C.2    52  ALA52       0.2287
     36  O         20.8660   51.6480   23.7380 O.2    52  ALA52      -0.2864
     37  CB        20.7620   51.3930   20.4640 C.3    52  ALA52       0.0319
     38  N         18.7110   53.0310   25.6990 N.3    55  GLN55      -0.1245
     39  CA        18.0790   51.8020   26.1670 C.3    55  GLN55       0.1566
     40  C         19.0920   50.9190   26.9100 C.2    55  GLN55       0.2260
     41  O         18.7410   50.2650   27.8910 O.2    55  GLN55      -0.2867
     42  CB        17.4590   51.0160   24.9970 C.3    55  GLN55       0.0367
     43  CG        16.1560   51.6370   24.4350 C.3    55  GLN55       0.0905
     44  CD        15.6310   50.8860   23.2000 C.2    55  GLN55       0.2608
     45  OE1       14.5720   51.2120   22.6440 O.2    55  GLN55      -0.2717
     46  NE2       16.3590   49.8770   22.7830 N.am   55  GLN55      -0.0878
     47  N         23.1790   42.0160   23.9690 N.3    85  TRP85      -0.1227
     48  CA        22.4790   43.2920   23.7940 C.3    85  TRP85       0.1737
     49  C         21.5200   43.4200   22.5940 C.2    85  TRP85       0.2595
     50  O         20.4010   43.9040   22.7270 O.2    85  TRP85      -0.2718
     51  CB        23.4850   44.4390   23.7730 C.3    85  TRP85       0.0564
     52  CG        24.2140   44.5820   22.4590 C.ar   85  TRP85       0.0003
     53  CD1       25.2430   43.7930   21.9860 C.ar   85  TRP85       0.0946
     54  CD2       23.9600   45.5610   21.4450 C.ar   85  TRP85       0.0152
     55  NE1       25.6220   44.2260   20.7410 N.ar   85  TRP85      -0.2442
     56  CE2       24.8600   45.3150   20.3930 C.ar   85  TRP85       0.0810
     57  CE3       23.0610   46.6370   21.3330 C.ar   85  TRP85       0.0012
     58  CZ2       24.8860   46.1010   19.2290 C.ar   85  TRP85       0.0191
     59  CZ3       23.0820   47.4110   20.1890 C.ar   85  TRP85       0.0001
     60  CH2       23.9980   47.1390   19.1500 C.ar   85  TRP85       0.0015
     61  N         21.9450   42.9820   21.4120 N.am   86  MET86      -0.1979
     62  CA        21.0750   43.0860   20.2340 C.3    86  MET86       0.1605
     63  C         19.8220   42.2060   20.3660 C.2    86  MET86       0.2287
     64  O         18.7520   42.6200   19.9150 O.2    86  MET86      -0.2864
     65  CB        21.8440   42.7290   18.9550 C.3    86  MET86       0.0413
     66  CG        21.0090   42.8740   17.6730 C.3    86  MET86       0.0598
     67  SD        20.6920   44.6430   17.2750 S.3    86  MET86      -0.1393
     68  CE        22.3220   45.1320   16.6260 C.3    86  MET86       0.0692
     69  N         17.4310   44.0700   22.9180 N.3    89  LEU89      -0.1231
     70  CA        16.7860   45.2600   22.3570 C.3    89  LEU89       0.1693
     71  C         15.8150   44.9330   21.2190 C.2    89  LEU89       0.2592
     72  O         14.7680   45.5600   21.1180 O.2    89  LEU89      -0.2718
     73  CB        17.8490   46.2640   21.8960 C.3    89  LEU89       0.0284
     74  CG        18.8080   46.7580   23.0120 C.3    89  LEU89       0.0019
     75  CD1       19.5960   48.0190   22.4970 C.3    89  LEU89       0.0001
     76  CD2       17.9890   47.1270   24.3050 C.3    89  LEU89       0.0001
     77  N         16.1440   43.9660   20.3680 N.am   90  SER90      -0.1952
     78  CA        15.2360   43.6440   19.2750 C.3    90  SER90       0.1924
     79  C         13.9820   42.9140   19.8130 C.2    90  SER90       0.2314
     80  O         12.8750   43.1650   19.3160 O.2    90  SER90      -0.2863
     81  CB        15.9300   42.7860   18.1910 C.3    90  SER90       0.2116
     82  OG        16.3300   41.5520   18.7400 O.3    90  SER90      -0.2180
     83  N         11.7990   45.4870   21.3460 N.3    93  LEU93      -0.1245
     84  CA        11.1560   46.2580   20.2800 C.3    93  LEU93       0.1561
     85  C          9.8810   45.5300   19.7790 C.2    93  LEU93       0.2260
     86  O          8.8360   46.1580   19.5150 O.2    93  LEU93      -0.2867
     87  CB        12.1380   46.4070   19.1050 C.3    93  LEU93       0.0270
     88  CG        11.5300   46.8620   17.7620 C.3    93  LEU93       0.0019
     89  CD1       11.0060   48.2990   17.9070 C.3    93  LEU93       0.0001
     90  CD2       12.5960   46.8180   16.6180 C.3    93  LEU93       0.0001
     91  N          7.1430   45.9390   22.4200 N.3    96  ARG96      -0.1245
     92  CA         6.4760   47.2420   22.3810 C.3    96  ARG96       0.1563
     93  C          5.5770   47.3220   21.1200 C.2    96  ARG96       0.2260
     94  O          4.4550   47.8520   21.1550 O.2    96  ARG96      -0.2867
     95  CB         7.5160   48.3890   22.3630 C.3    96  ARG96       0.0307
     96  CG         8.3280   48.4920   23.6550 C.3    96  ARG96       0.0489
     97  CD         9.1120   49.8270   23.6270 C.3    96  ARG96       0.2205
     98  NE        10.0750   49.8720   22.5110 N.pl3  96  ARG96      -0.0865
     99  CZ        11.2790   49.2910   22.5160 C.cat  96  ARG96       0.5346
    100  NH1       11.7020   48.6030   23.5830 N.pl3  96  ARG96       0.1354
    101  NH2       12.0720   49.3810   21.4410 N.pl3  96  ARG96       0.1354
    102  N          9.6760   51.7190   17.9770 N.3   108  PHE108     -0.1241
    103  CA        11.0030   51.9170   18.5380 C.3   108  PHE108      0.1605
    104  C         10.9190   52.7160   19.8190 C.2   108  PHE108      0.2264
    105  O         11.5880   52.3880   20.8080 O.2   108  PHE108     -0.2867
    106  CB        11.9170   52.6090   17.5250 C.3   108  PHE108      0.0534
    107  CG        12.4530   51.6690   16.4780 C.ar  108  PHE108     -0.0203
    108  CD1       11.8560   51.6000   15.2170 C.ar  108  PHE108     -0.0042
    109  CD2       13.5510   50.8480   16.7510 C.ar  108  PHE108     -0.0042
    110  CE1       12.3150   50.7320   14.2210 C.ar  108  PHE108     -0.0003
    111  CE2       14.0150   49.9750   15.7580 C.ar  108  PHE108     -0.0003
    112  CZ        13.3940   49.9270   14.4960 C.ar  108  PHE108     -0.0000
    113  N         17.4090   49.5320    6.0330 N.3   124  MET124     -0.1245
    114  CA        17.4350   48.2910    6.8420 C.3   124  MET124      0.1570
    115  C         16.0710   47.5770    6.6500 C.2   124  MET124      0.2261
    116  O         15.5750   46.9460    7.5900 O.2   124  MET124     -0.2867
    117  CB        17.4830   48.7220    8.3200 C.3   124  MET124      0.0387
    118  CG        18.5490   48.2200    9.1470 C.3   124  MET124      0.0595
    119  SD        18.0410   48.9570   10.7390 S.3   124  MET124     -0.1393
    120  CE        17.0340   47.6820   11.3360 C.3   124  MET124      0.0692
    121  N         15.6810   43.7260    7.4650 N.3   127  LEU127     -0.1245
    122  CA        15.8990   43.4920    8.9030 C.3   127  LEU127      0.1561
    123  C         14.6540   43.9630    9.6640 C.2   127  LEU127      0.2260
    124  O         14.2090   43.3090   10.6050 O.2   127  LEU127     -0.2867
    125  CB        17.1260   44.2630    9.3830 C.3   127  LEU127      0.0270
    126  CG        18.4020   43.6270    8.8220 C.3   127  LEU127      0.0019
    127  CD1       19.6250   44.4380    9.1900 C.3   127  LEU127      0.0001
    128  CD2       18.4900   42.1800    9.3780 C.3   127  LEU127      0.0001
    129  N         12.2510   41.7530   12.2800 N.3   131  MET131     -0.1245
    130  CA        11.8250   42.0780   13.6500 C.3   131  MET131      0.1570
    131  C         10.3000   42.1970   13.6830 C.2   131  MET131      0.2261
    132  O          9.6540   41.8590   14.6610 O.2   131  MET131     -0.2867
    133  CB        12.4710   43.3830   14.1200 C.3   131  MET131      0.0387
    134  CG        14.0030   43.1910   14.2550 C.3   131  MET131      0.0595
    135  SD        14.8580   44.6270   14.9070 S.3   131  MET131     -0.1393
    136  CE        14.6380   45.7410   13.5920 C.3   131  MET131      0.0692
    137  N         21.1320   41.0640   12.1750 N.3   216  LEU216     -0.1245
    138  CA        21.1170   42.4240   12.7010 C.3   216  LEU216      0.1561
    139  C         22.5540   42.8420   13.0050 C.2   216  LEU216      0.2260
    140  O         22.9710   43.9500   12.6850 O.2   216  LEU216     -0.2867
    141  CB        20.2740   42.5100   13.9830 C.3   216  LEU216      0.0270
    142  CG        18.7490   42.3510   13.7610 C.3   216  LEU216      0.0019
    143  CD1       18.0420   42.2620   15.1100 C.3   216  LEU216      0.0001
    144  CD2       18.1700   43.5460   12.9240 C.3   216  LEU216      0.0001
    145  N         24.7450   43.6680    9.8560 N.3   219  PHE219     -0.1227
    146  CA        24.4910   45.0120    9.3620 C.3   219  PHE219      0.1736
    147  C         25.1050   46.0610   10.3270 C.2   219  PHE219      0.2595
    148  O         25.7270   47.0350    9.8810 O.2   219  PHE219     -0.2718
    149  CB        22.9740   45.1740    9.2130 C.3   219  PHE219      0.0547
    150  CG        22.5560   46.4440    8.5460 C.ar  219  PHE219     -0.0202
    151  CD1       22.1400   46.4370    7.2260 C.ar  219  PHE219     -0.0042
    152  CD2       22.5180   47.6420    9.2450 C.ar  219  PHE219     -0.0042
    153  CE1       21.7030   47.6030    6.6180 C.ar  219  PHE219     -0.0003
    154  CE2       22.0760   48.8190    8.6290 C.ar  219  PHE219     -0.0003
    155  CZ        21.6720   48.8040    7.3430 C.ar  219  PHE219     -0.0000
    156  N         24.9210   45.8640   11.6370 N.am  220  CYS220     -0.1970
    157  CA        25.4800   46.7500   12.6600 C.3   220  CYS220      0.1712
    158  C         27.0150   46.8500   12.5200 C.2   220  CYS220      0.2296
    159  O         27.5710   47.9540   12.4570 O.2   220  CYS220     -0.2864
    160  CB        25.1530   46.2160   14.0610 C.3   220  CYS220      0.0983
    161  SG        25.7040   47.3230   15.4310 S.3   220  CYS220     -0.0798
    162  N         27.8580   48.8880    9.3220 N.3   223  THR223     -0.1218
    163  CA        27.6710   50.3320    9.3950 C.3   223  THR223      0.1862
    164  C         28.6490   50.9230   10.4100 C.2   223  THR223      0.2287
    165  O         29.0760   52.0510   10.2670 O.2   223  THR223     -0.2866
    166  CB        26.2160   50.7000    9.7740 C.3   223  THR223      0.1770
    167  OG1       25.9800   50.4260   11.1500 O.3   223  THR223     -0.2211
    168  CG2       25.2450   49.8820    8.9220 C.3   223  THR223      0.0375
    169  N         26.9040   57.4620    9.6770 N.3   232  VAL232     -0.1245
    170  CA        26.0330   56.9080   10.6990 C.3   232  VAL232      0.1561
    171  C         26.7710   57.1060   12.0330 C.2   232  VAL232      0.2260
    172  O         27.8520   56.5520   12.2390 O.2   232  VAL232     -0.2867
    173  CB        25.7800   55.4210   10.4460 C.3   232  VAL232      0.0252
    174  CG1       24.9660   54.7970   11.6180 C.3   232  VAL232      0.0019
    175  CG2       25.0210   55.2730    9.1180 C.3   232  VAL232      0.0019
    176  N         27.3830   56.8000   16.1700 N.3   234  PHE234     -0.1241
    177  CA        27.1140   55.8530   17.2620 C.3   234  PHE234      0.1605
    178  C         27.4750   56.5580   18.5770 C.2   234  PHE234      0.2264
    179  O         28.5350   57.2290   18.6570 O.2   234  PHE234     -0.2867
    180  CB        28.0150   54.6020   17.1460 C.3   234  PHE234      0.0534
    181  CG        27.6590   53.6790   16.0030 C.ar  234  PHE234     -0.0203
    182  CD1       28.0160   53.9840   14.7030 C.ar  234  PHE234     -0.0042
    183  CD2       26.9600   52.5080   16.2480 C.ar  234  PHE234     -0.0042
    184  CE1       27.6720   53.1320   13.6530 C.ar  234  PHE234     -0.0003
    185  CE2       26.6140   51.6590   15.2280 C.ar  234  PHE234     -0.0003
    186  CZ        26.9720   51.9680   13.9110 C.ar  234  PHE234     -0.0000
    187  N         27.3780   52.4840   22.5560 N.3   238  LEU238     -0.1245
    188  CA        27.4300   51.5170   21.4660 C.3   238  LEU238      0.1561
    189  C         28.8390   51.3430   20.9700 C.2   238  LEU238      0.2260
    190  O         29.2140   50.2550   20.5960 O.2   238  LEU238     -0.2867
    191  CB        26.5090   51.9250   20.3140 C.3   238  LEU238      0.0270
    192  CG        25.2250   51.0730   20.2910 C.3   238  LEU238      0.0019
    193  CD1       24.5140   51.0970   21.6470 C.3   238  LEU238      0.0001
    194  CD2       24.2930   51.5910   19.1850 C.3   238  LEU238      0.0001
@<TRIPOS>BOND
     1   113   114    1
     2   153   151   ar
     3   153   155   ar
     4   115   114    1
     5   115   116    2
     6   114   117    1
     7   151   150   ar
     8   155   154   ar
     9   121   122    1
    10   117   118    1
    11   150   149    1
    12   150   152   ar
    13   154   152   ar
    14     7     6    1
    15   126   127    1
    16   126   128    1
    17   126   125    1
    18   122   125    1
    19   122   123    1
    20   168   166    1
    21   175   173    1
    22   118   119    1
    23   149   146    1
    24   162   163    1
    25   146   145    1
    26   146   147    1
    27   163   166    1
    28   163   164    1
    29     6     8    1
    30     6     5    1
    31   123   124    2
    32   169   170    1
    33   166   167    1
    34   148   147    2
    35   165   164    2
    36   147   156   am
    37   173   170    1
    38   173   174    1
    39   170   171    1
    40     5     2    1
    41   119   120    1
    42     1     2    1
    43   156   157    1
    44     2     3    1
    45   171   172    2
    46   137   138    1
    47   129   130    1
    48   159   158    2
    49   158   157    1
    50   157   160    1
    51   140   139    2
    52   138   139    1
    53   138   141    1
    54     3     4    2
    55   144   142    1
    56    15    14    1
    57   136   135    1
    58   130   131    1
    59   130   133    1
    60   184   186   ar
    61   184   182   ar
    62   131   132    2
    63   142   141    1
    64   142   143    1
    65   186   185   ar
    66   160   161    1
    67   133   134    1
    68   110   112   ar
    69   110   108   ar
    70   134   135    1
    71    14    13    1
    72    14    16    1
    73   112   111   ar
    74   182   181   ar
    75    24    22   am
    76   108   107   ar
    77   185   183   ar
    78    13    10    1
    79     9    10    1
    80    22    23    2
    81    22    21    1
    82   111   109   ar
    83   181   183   ar
    84   181   180    1
    85   176   177    1
    86    10    11    1
    87   107   109   ar
    88   107   106    1
    89    90    88    1
    90    68    67    1
    91    17    11   am
    92    17    18    1
    93    21    18    1
    94   180   177    1
    95    11    12    2
    96   177   178    1
    97    67    66    1
    98   106   103    1
    99    18    19    1
   100    66    65    1
   101    88    89    1
   102    88    87    1
   103   102   103    1
   104    81    82    1
   105    81    78    1
   106   103   104    1
   107   178   179    2
   108    19    20    2
   109    65    62    1
   110    87    84    1
   111    60    58   ar
   112    60    59   ar
   113   194   192    1
   114    58    56   ar
   115    78    79    1
   116    78    77    1
   117    80    79    2
   118    86    85    2
   119    85    84    1
   120   104   105    2
   121    64    63    2
   122    32    30    1
   123    59    57   ar
   124    62    63    1
   125    62    61    1
   126    29    30    1
   127    29    26    1
   128    84    83    1
   129   192   191    1
   130   192   193    1
   131   191   188    1
   132    25    26    1
   133    77    71   am
   134    56    55   ar
   135    56    54   ar
   136    37    34    1
   137   190   189    2
   138    55    53   ar
   139    30    31    1
   140   189   188    1
   141    33    34    1
   142    33    27   am
   143    72    71    2
   144    93    94    2
   145    93    92    1
   146    26    27    1
   147    71    70    1
   148    57    54   ar
   149    61    49   am
   150   101    99    1
   151    54    52   ar
   152   188   187    1
   153    34    35    1
   154    27    28    2
   155    73    70    1
   156    73    74    1
   157    53    52   ar
   158    70    69    1
   159    95    92    1
   160    95    96    1
   161    92    91    1
   162    52    51    1
   163    75    74    1
   164    98    99    2
   165    98    97    1
   166    99   100    1
   167    49    50    2
   168    49    48    1
   169    45    44    2
   170    35    36    2
   171    46    44   am
   172    74    76    1
   173    44    43    1
   174    97    96    1
   175    51    48    1
   176    48    47    1
   177    43    42    1
   178    42    39    1
   179    38    39    1
   180    39    40    1
   181    40    41    2
