@<TRIPOS>MOLECULE
tmp/2aa9A00.pdb
 134 125 0 0 0
SMALL
GASTEIGER

@<TRIPOS>ATOM
      1  N         62.6970   18.2550   30.6470 N.3    22  LYS22      -0.1231
      2  CA        62.9720   17.5420   29.3950 C.3    22  LYS22       0.1693
      3  C         61.7760   17.5920   28.4550 C.2    22  LYS22       0.2592
      4  O         61.9390   17.8880   27.2690 O.2    22  LYS22      -0.2718
      5  CB        63.3260   16.0780   29.6920 C.3    22  LYS22       0.0285
      6  CG        63.5390   15.2220   28.4490 C.3    22  LYS22       0.0035
      7  CD        62.4050   14.1770   28.3090 C.3    22  LYS22       0.0206
      8  CE        62.5400   13.0580   29.3530 C.3    22  LYS22       0.1093
      9  NZ        61.3450   12.1550   29.3960 N.3    22  LYS22      -0.1314
     10  N         60.5790   17.3340   28.9940 N.am   23  SER23      -0.1952
     11  CA        59.3530   17.3310   28.1820 C.3    23  SER23       0.1924
     12  C         59.1160   18.6700   27.5180 C.2    23  SER23       0.2314
     13  O         58.7760   18.7310   26.3380 O.2    23  SER23      -0.2863
     14  CB        58.1550   16.9790   29.0540 C.3    23  SER23       0.2116
     15  OG        58.2710   15.6440   29.5250 O.3    23  SER23      -0.2180
     16  N         59.9330   19.7770   23.2850 N.3    27  ARG27      -0.1245
     17  CA        58.7790   20.2980   22.5370 C.3    27  ARG27       0.1563
     18  C         59.0960   21.7330   22.0700 C.2    27  ARG27       0.2260
     19  O         58.8370   22.1070   20.9160 O.2    27  ARG27      -0.2867
     20  CB        57.5330   20.3750   23.4320 C.3    27  ARG27       0.0307
     21  CG        56.7830   19.0440   23.6350 C.3    27  ARG27       0.0489
     22  CD        55.8320   19.1690   24.8130 C.3    27  ARG27       0.2205
     23  NE        54.9590   18.0050   25.0240 N.pl3  27  ARG27      -0.0865
     24  CZ        55.3360   16.8550   25.5830 C.cat  27  ARG27       0.5346
     25  NH1       54.4550   15.8770   25.7570 N.pl3  27  ARG27       0.1354
     26  NH2       56.6030   16.6780   25.9650 N.pl3  27  ARG27       0.1354
     27  N         61.0110   11.7120   23.3540 N.3    97  THR97      -0.1218
     28  CA        60.5040   13.0370   23.0210 C.3    97  THR97       0.1862
     29  C         61.1660   13.6540   21.7910 C.2    97  THR97       0.2287
     30  O         60.8260   14.7610   21.3750 O.2    97  THR97      -0.2866
     31  CB        60.5870   14.0090   24.2120 C.3    97  THR97       0.1770
     32  OG1       61.9560   14.2180   24.5750 O.3    97  THR97      -0.2211
     33  CG2       59.8070   13.4720   25.3960 C.3    97  THR97       0.0375
     34  N         61.0820   -0.0260   21.5830 N.3   124  ARG124     -0.1245
     35  CA        60.0210    0.8110   22.1610 C.3   124  ARG124      0.1563
     36  C         59.0200    1.0420   21.0290 C.2   124  ARG124      0.2260
     37  O         59.3680    1.5120   19.9480 O.2   124  ARG124     -0.2867
     38  CB        60.6220    2.1010   22.7080 C.3   124  ARG124      0.0307
     39  CG        61.4550    1.8150   23.9700 C.3   124  ARG124      0.0489
     40  CD        62.1580    3.0230   24.5190 C.3   124  ARG124      0.2205
     41  NE        61.2340    4.0440   24.9880 N.pl3 124  ARG124     -0.0865
     42  CZ        61.6210    5.2650   25.3380 C.cat 124  ARG124      0.5346
     43  NH1       60.7220    6.1490   25.7510 N.pl3 124  ARG124      0.1354
     44  NH2       62.9050    5.5890   25.2870 N.pl3 124  ARG124      0.1354
     45  N         50.6600    4.7960   24.6800 N.3   169  SER169     -0.1202
     46  CA        51.5020    5.9720   24.9000 C.3   169  SER169      0.2020
     47  C         50.7960    7.2780   24.5400 C.2   169  SER169      0.2619
     48  O         50.1110    7.3510   23.5240 O.2   169  SER169     -0.2717
     49  CB        52.7610    5.8760   24.0170 C.3   169  SER169      0.2103
     50  OG        53.4790    7.1040   24.0070 O.3   169  SER169     -0.2182
     51  N         50.9970    8.3190   25.3400 N.am  170  SER170     -0.1937
     52  CA        50.4270    9.6170   25.0240 C.3   170  SER170      0.2055
     53  C         51.3000   10.3250   23.9760 C.2   170  SER170      0.2642
     54  O         50.8700   11.3010   23.3560 O.2   170  SER170     -0.2714
     55  CB        50.3780   10.5030   26.2720 C.3   170  SER170      0.2130
     56  OG        51.6870   10.8100   26.7560 O.3   170  SER170     -0.2179
     57  N         52.5250    9.8400   23.7820 N.am  171  GLN171     -0.1976
     58  CA        53.4410   10.4970   22.8680 C.3   171  GLN171      0.1601
     59  C         53.0240   10.4280   21.4100 C.2   171  GLN171      0.2287
     60  O         53.4180   11.2800   20.6180 O.2   171  GLN171     -0.2864
     61  CB        54.8440    9.9170   23.0400 C.3   171  GLN171      0.0394
     62  CG        55.4660   10.2390   24.3910 C.3   171  GLN171      0.0908
     63  CD        56.8630    9.6820   24.5310 C.2   171  GLN171      0.2608
     64  OE1       57.6500    9.7400   23.5890 O.2   171  GLN171     -0.2717
     65  NE2       57.1850    9.1580   25.7140 N.am  171  GLN171     -0.0878
     66  N         50.6730   13.2830   21.0890 N.3   174  THR174     -0.1218
     67  CA        51.4610   14.5060   21.1560 C.3   174  THR174      0.1862
     68  C         52.1260   14.8000   19.8200 C.2   174  THR174      0.2287
     69  O         52.0910   15.9290   19.3380 O.2   174  THR174     -0.2866
     70  CB        52.5480   14.4050   22.2640 C.3   174  THR174      0.1770
     71  OG1       51.9280   14.7050   23.5170 O.3   174  THR174     -0.2211
     72  CG2       53.7530   15.3440   21.9980 C.3   174  THR174      0.0375
     73  N         48.1530    8.6440   30.4890 N.3   197  SER197     -0.1217
     74  CA        48.9580    9.7990   30.8870 C.3   197  SER197      0.1889
     75  C         48.5950   11.1360   30.2050 C.2   197  SER197      0.2288
     76  O         49.4640   11.8340   29.6390 O.2   197  SER197     -0.2866
     77  CB        50.4380    9.4300   30.6770 C.3   197  SER197      0.2089
     78  OG        50.6900    8.1600   31.2880 O.3   197  SER197     -0.2183
     79  N         50.4470   14.8640   29.7620 N.3   200  TYR200     -0.1241
     80  CA        51.4410   15.1840   28.7420 C.3   200  TYR200      0.1605
     81  C         50.8150   15.7890   27.5040 C.2   200  TYR200      0.2264
     82  O         51.4760   16.5120   26.7670 O.2   200  TYR200     -0.2867
     83  CB        52.2780   13.9470   28.3860 C.3   200  TYR200      0.0534
     84  CG        53.2240   13.5670   29.4980 C.ar  200  TYR200     -0.0201
     85  CD1       52.9000   12.5520   30.4150 C.ar  200  TYR200     -0.0009
     86  CD2       54.4280   14.2510   29.6610 C.ar  200  TYR200     -0.0009
     87  CE1       53.7550   12.2340   31.4600 C.ar  200  TYR200      0.0417
     88  CE2       55.3060   13.9330   30.7250 C.ar  200  TYR200      0.0417
     89  CZ        54.9540   12.9260   31.6080 C.ar  200  TYR200      0.1957
     90  OH        55.7830   12.5710   32.6460 O.3   200  TYR200     -0.2866
     91  N         53.3210    8.5820   35.6370 N.3   312  PRO312     -0.2102
     92  CA        54.1580    7.3890   35.5120 C.3   312  PRO312      0.1504
     93  C         55.6340    7.5200   35.8350 C.2   312  PRO312      0.2575
     94  O         56.2130    6.5910   36.4200 O.2   312  PRO312     -0.2718
     95  CB        53.9130    6.9380   34.0700 C.3   312  PRO312      0.0282
     96  CG        53.6030    8.2260   33.3440 C.3   312  PRO312      0.0208
     97  CD        52.7270    8.9620   34.3410 C.3   312  PRO312      0.0893
     98  N         56.2360    8.6520   35.4830 N.am  313  ASP313     -0.1974
     99  CA        57.6730    8.8130   35.7150 C.3   313  ASP313      0.1708
    100  C         57.9660    9.0930   37.1870 C.2   313  ASP313      0.2293
    101  O         58.7520    8.3690   37.8130 O.2   313  ASP313     -0.2864
    102  CB        58.2240    9.9310   34.8310 C.3   313  ASP313      0.1436
    103  CG        58.1860    9.5950   33.3370 C.2   313  ASP313      0.3671
    104  OD1       58.5160   10.4960   32.5510 O.co2 313  ASP313     -0.2456
    105  OD2       57.8310    8.4600   32.9420 O.co2 313  ASP313     -0.2456
    106  N         59.0250    1.7510   28.4590 N.3   340  LYS340     -0.1231
    107  CA        59.8480    2.9490   28.5440 C.3   340  LYS340      0.1693
    108  C         61.3640    2.7030   28.4610 C.2   340  LYS340      0.2591
    109  O         61.7740    1.7760   27.7630 O.2   340  LYS340     -0.2718
    110  CB        59.4160    3.7240   29.7840 C.3   340  LYS340      0.0285
    111  CG        57.9640    4.1930   29.6340 C.3   340  LYS340      0.0035
    112  CD        57.4630    4.9480   30.8400 C.3   340  LYS340      0.0206
    113  CE        55.9910    5.3500   30.6700 C.3   340  LYS340      0.1093
    114  NZ        55.7570    6.3140   29.5550 N.3   340  LYS340     -0.1314
    115  N         62.1910    3.5010   29.1520 N.am  341  GLU341     -0.1979
    116  CA        63.6440    3.3360   29.0440 C.3   341  GLU341      0.1602
    117  C         64.0820    1.8920   29.2310 C.2   341  GLU341      0.2287
    118  O         65.0660    1.4480   28.6230 O.2   341  GLU341     -0.2864
    119  CB        64.3700    4.2890   29.9980 C.3   341  GLU341      0.0415
    120  CG        64.4670    5.7370   29.4580 C.3   341  GLU341      0.1163
    121  CD        63.1960    6.5990   29.6670 C.2   341  GLU341      0.3649
    122  OE1       62.0480    6.0730   29.7750 O.co2 341  GLU341     -0.2457
    123  OE2       63.3730    7.8250   29.7130 O.co2 341  GLU341     -0.2457
    124  N         60.2210   -1.0340   33.3400 N.3   344  ARG344     -0.1245
    125  CA        60.3710   -0.5600   34.7080 C.3   344  ARG344      0.1563
    126  C         59.6610   -1.3860   35.7730 C.2   344  ARG344      0.2260
    127  O         60.0620   -1.3510   36.9290 O.2   344  ARG344     -0.2867
    128  CB        59.9850    0.9250   34.7860 C.3   344  ARG344      0.0307
    129  CG        60.9990    1.7990   34.0450 C.3   344  ARG344      0.0489
    130  CD        60.4700    3.1950   33.7270 C.3   344  ARG344      0.2205
    131  NE        61.6060    4.0930   33.4940 N.pl3 344  ARG344     -0.0865
    132  CZ        61.5060    5.3690   33.1330 C.cat 344  ARG344      0.5346
    133  NH1       62.6040    6.1110   32.9660 N.pl3 344  ARG344      0.1354
    134  NH2       60.3110    5.9020   32.8810 N.pl3 344  ARG344      0.1354
@<TRIPOS>BOND
     1    69    68    2
     2    68    67    1
     3    37    36    2
     4    60    59    2
     5    19    18    2
     6    36    35    1
     7    66    67    1
     8    67    70    1
     9    30    29    2
    10    59    58    1
    11    34    35    1
    12    29    28    1
    13    72    70    1
    14    18    17    1
    15    35    38    1
    16    70    71    1
    17    17    16    1
    18    17    20    1
    19    38    39    1
    20    58    61    1
    21    58    57    1
    22    28    27    1
    23    28    31    1
    24    61    62    1
    25    54    53    2
    26    20    21    1
    27    48    47    2
    28    64    63    2
    29    21    22    1
    30    57    53   am
    31    39    40    1
    32    53    52    1
    33    50    49    1
    34    49    46    1
    35    31    32    1
    36    31    33    1
    37    62    63    1
    38    40    41    1
    39    63    65   am
    40    47    46    1
    41    47    51   am
    42    45    46    1
    43    22    23    1
    44    41    42    2
    45    23    24    2
    46    52    51    1
    47    52    55    1
    48    44    42    1
    49    42    43    1
    50    24    25    1
    51    24    26    1
    52    55    56    1
    53    13    12    2
    54    82    81    2
    55     4     3    2
    56    81    80    1
    57    12    11    1
    58   109   108    2
    59    11    10    1
    60    11    14    1
    61     7     6    1
    62     7     8    1
    63    83    80    1
    64    83    84    1
    65     6     5    1
    66     3    10   am
    67     3     2    1
    68   106   107    1
    69   108   107    1
    70   108   115   am
    71   107   110    1
    72   118   117    2
    73    80    79    1
    74   116   115    1
    75   116   117    1
    76   116   119    1
    77    14    15    1
    78     8     9    1
    79     2     5    1
    80     2     1    1
    81   120   121    1
    82   120   119    1
    83    84    86   ar
    84    84    85   ar
    85   114   113    1
    86   111   110    1
    87   111   112    1
    88    76    75    2
    89    86    88   ar
    90   121   123   ar
    91   121   122   ar
    92    75    74    1
    93    85    87   ar
    94    73    74    1
    95   113   112    1
    96    77    74    1
    97    77    78    1
    98    88    89   ar
    99    87    89   ar
   100    89    90    1
   101   104   103   ar
   102   134   132    1
   103   105   103   ar
   104   133   132    1
   105   132   131    2
   106   103   102    1
   107   124   125    1
   108    96    95    1
   109    96    97    1
   110   131   130    1
   111   130   129    1
   112   129   128    1
   113    95    92    1
   114    97    91    1
   115   125   128    1
   116   125   126    1
   117   102    99    1
   118    98    99    1
   119    98    93   am
   120    92    91    1
   121    92    93    1
   122    99   100    1
   123   126   127    2
   124    93    94    2
   125   100   101    2
