@<TRIPOS>MOLECULE
tmp/2aaiB02.pdb
 100 96 0 0 0
SMALL
GASTEIGER

@<TRIPOS>ATOM
      1  N         10.9870   54.6960   22.4190 N.3    91  GLN91      -0.1245
      2  CA        10.9870   55.0850   23.8380 C.3    91  GLN91       0.1566
      3  C         11.6100   53.9860   24.6800 C.2    91  GLN91       0.2260
      4  O         11.2480   52.8420   24.5030 O.2    91  GLN91      -0.2867
      5  CB         9.6030   55.2610   24.4330 C.3    91  GLN91       0.0367
      6  CG         8.8020   56.2680   23.7110 C.3    91  GLN91       0.0905
      7  CD         7.5380   56.7110   24.4130 C.2    91  GLN91       0.2608
      8  OE1        6.6510   55.9760   24.8270 O.2    91  GLN91      -0.2717
      9  NE2        7.3880   58.0060   24.5080 N.am   91  GLN91      -0.0878
     10  N         11.7250   52.2490   28.3200 N.3    93  TRP93      -0.1227
     11  CA        11.0170   52.2870   29.5920 C.3    93  TRP93       0.1737
     12  C         11.7950   51.7290   30.7610 C.2    93  TRP93       0.2595
     13  O         12.5550   50.7680   30.6650 O.2    93  TRP93      -0.2718
     14  CB         9.6990   51.5110   29.5180 C.3    93  TRP93       0.0564
     15  CG         8.6240   52.0330   28.5640 C.ar   93  TRP93       0.0003
     16  CD1        8.6670   53.2860   27.9940 C.ar   93  TRP93       0.0946
     17  CD2        7.5220   51.3620   28.1690 C.ar   93  TRP93       0.0152
     18  NE1        7.6130   53.3980   27.2540 N.ar   93  TRP93      -0.2442
     19  CE2        6.9160   52.2730   27.3350 C.ar   93  TRP93       0.0810
     20  CE3        6.9540   50.1510   28.3630 C.ar   93  TRP93       0.0012
     21  CZ2        5.7410   52.0260   26.6920 C.ar   93  TRP93       0.0191
     22  CZ3        5.7670   49.8820   27.7250 C.ar   93  TRP93       0.0001
     23  CH2        5.1670   50.8070   26.8950 C.ar   93  TRP93       0.0015
     24  N         11.5930   52.3390   31.9390 N.am   94  ASP94      -0.1960
     25  CA        12.1600   51.8970   33.2550 C.3    94  ASP94       0.1840
     26  C         12.0070   50.4430   33.5180 C.2    94  ASP94       0.2622
     27  O         12.8350   49.9270   34.2140 O.2    94  ASP94      -0.2715
     28  CB        11.4920   52.5700   34.4770 C.3    94  ASP94       0.1450
     29  CG        11.8340   54.0520   34.5360 C.2    94  ASP94       0.3671
     30  OD1       13.0190   54.3890   34.3270 O.co2  94  ASP94      -0.2456
     31  OD2       10.9200   54.8500   34.7560 O.co2  94  ASP94      -0.2456
     32  N         10.9730   49.7990   32.9940 N.am   95  ASN95      -0.1972
     33  CA        10.7760   48.3630   33.0980 C.3    95  ASN95       0.1688
     34  C         11.3670   47.5400   31.9370 C.2    95  ASN95       0.2292
     35  O         10.9560   46.4170   31.6850 O.2    95  ASN95      -0.2864
     36  CB         9.2930   48.1230   33.2290 C.3    95  ASN95       0.1181
     37  CG         8.4780   48.5200   32.0250 C.2    95  ASN95       0.2629
     38  OD1        8.9900   48.8860   30.9950 O.2    95  ASN95      -0.2716
     39  ND2        7.1740   48.5230   32.0850 N.am   95  ASN95      -0.0877
     40  N          9.8870   50.4600   23.0560 N.3    99  ILE99      -0.1245
     41  CA         8.7290   50.4040   22.2270 C.3    99  ILE99       0.1561
     42  C          8.9180   51.4550   21.1480 C.2    99  ILE99       0.2260
     43  O          9.6150   52.4660   21.2580 O.2    99  ILE99      -0.2867
     44  CB         7.4920   50.6630   23.1140 C.3    99  ILE99       0.0252
     45  CG1        6.2160   50.3180   22.4420 C.3    99  ILE99       0.0019
     46  CG2        7.3970   52.1260   23.4040 C.3    99  ILE99       0.0019
     47  CD1        4.8960   50.7490   23.1780 C.3    99  ILE99       0.0001
     48  N          5.6180   41.4890   27.6420 N.3   125  TYR125     -0.1241
     49  CA         6.6430   41.6390   28.6810 C.3   125  TYR125      0.1605
     50  C          7.5350   40.3990   28.8950 C.2   125  TYR125      0.2264
     51  O          7.7340   39.9820   30.0370 O.2   125  TYR125     -0.2867
     52  CB         5.9490   42.0170   29.9910 C.3   125  TYR125      0.0534
     53  CG         5.4560   43.4410   30.0590 C.ar  125  TYR125     -0.0201
     54  CD1        6.3560   44.4770   30.1830 C.ar  125  TYR125     -0.0009
     55  CD2        4.1190   43.7170   29.9780 C.ar  125  TYR125     -0.0009
     56  CE1        5.9110   45.7880   30.2180 C.ar  125  TYR125      0.0417
     57  CE2        3.6730   45.0220   30.0160 C.ar  125  TYR125      0.0417
     58  CZ         4.5650   46.0530   30.1270 C.ar  125  TYR125      0.1957
     59  OH         4.1050   47.3640   30.1030 O.3   125  TYR125     -0.2866
     60  N         10.9250   46.5650   42.3330 N.3   219  LYS219     -0.1245
     61  CA        10.2820   47.8720   42.4120 C.3   219  LYS219      0.1561
     62  C         10.7360   48.6640   43.6050 C.2   219  LYS219      0.2260
     63  O         11.3510   48.1250   44.5200 O.2   219  LYS219     -0.2867
     64  CB         8.7850   47.7350   42.4840 C.3   219  LYS219      0.0271
     65  CG         8.2740   46.7960   41.4240 C.3   219  LYS219      0.0035
     66  CD         7.0490   47.4710   40.9390 C.3   219  LYS219      0.0206
     67  CE         7.6300   48.3060   39.8310 C.3   219  LYS219      0.1093
     68  NZ         6.7370   49.3880   39.5330 N.3   219  LYS219     -0.1314
     69  N          8.1460   42.1300   41.1220 N.3   225  LEU225     -0.1245
     70  CA         6.9560   42.0460   40.2970 C.3   225  LEU225      0.1561
     71  C          7.1700   41.1830   39.0640 C.2   225  LEU225      0.2260
     72  O          8.2180   41.1940   38.4020 O.2   225  LEU225     -0.2867
     73  CB         6.5610   43.4530   39.8450 C.3   225  LEU225      0.0270
     74  CG         5.1730   44.0570   39.6120 C.3   225  LEU225      0.0019
     75  CD1        5.2600   44.7700   38.2880 C.3   225  LEU225      0.0001
     76  CD2        4.0430   43.0690   39.6090 C.3   225  LEU225      0.0001
     77  N          6.1710   41.4610   35.5910 N.3   227  LEU227     -0.1231
     78  CA         5.6010   42.4150   34.6190 C.3   227  LEU227      0.1693
     79  C          4.9220   41.5010   33.6400 C.2   227  LEU227      0.2592
     80  O          5.6700   40.6950   33.0560 O.2   227  LEU227     -0.2718
     81  CB         6.6650   43.1770   33.8000 C.3   227  LEU227      0.0284
     82  CG         7.8540   43.8630   34.4670 C.3   227  LEU227      0.0019
     83  CD1        8.7790   44.3950   33.4330 C.3   227  LEU227      0.0001
     84  CD2        7.3560   44.9680   35.3320 C.3   227  LEU227      0.0001
     85  N          3.6010   41.4840   33.5700 N.am  228  TYR228     -0.1976
     86  CA         2.7430   40.7350   32.6300 C.3   228  TYR228      0.1639
     87  C          1.4680   40.3420   33.3730 C.2   228  TYR228      0.2290
     88  O          0.3970   40.8670   33.0790 O.2   228  TYR228     -0.2864
     89  CB         3.3140   39.4220   32.0690 C.3   228  TYR228      0.0560
     90  CG         2.3600   38.9080   31.0110 C.ar  228  TYR228     -0.0198
     91  CD1        2.0650   39.6740   29.9010 C.ar  228  TYR228     -0.0009
     92  CD2        1.7470   37.6850   31.1630 C.ar  228  TYR228     -0.0009
     93  CE1        1.1730   39.2570   28.9350 C.ar  228  TYR228      0.0417
     94  CE2        0.8520   37.2570   30.2020 C.ar  228  TYR228      0.0417
     95  CZ         0.5870   38.0490   29.1120 C.ar  228  TYR228      0.1957
     96  OH        -0.3050   37.5880   28.1860 O.3   228  TYR228     -0.2866
     97  N          1.2240   40.9900   36.5600 N.3   230  GLY230     -0.1225
     98  CA         0.9750   42.0350   37.5420 C.3   230  GLY230      0.1811
     99  C          1.0220   41.5680   39.0220 C.2   230  GLY230      0.2280
    100  O          0.7310   42.3180   39.9390 O.2   230  GLY230     -0.2866
@<TRIPOS>BOND
     1    42    43    2
     2    42    41    1
     3    41    40    1
     4    41    44    1
     5     1     2    1
     6    45    44    1
     7    45    47    1
     8    44    46    1
     9     6     7    1
    10     6     5    1
    11     2     5    1
    12     2     3    1
    13     7     9   am
    14     7     8    2
    15     4     3    2
    16    21    23   ar
    17    21    19   ar
    18    23    22   ar
    19    18    19   ar
    20    18    16   ar
    21    19    17   ar
    22    48    49    1
    23    22    20   ar
    24    16    15   ar
    25    17    20   ar
    26    17    15   ar
    27    96    95    1
    28    10    11    1
    29    15    14    1
    30    49    50    1
    31    49    52    1
    32    50    51    2
    33    93    95   ar
    34    93    91   ar
    35    95    94   ar
    36    14    11    1
    37    11    12    1
    38    91    90   ar
    39    55    57   ar
    40    55    53   ar
    41    52    53    1
    42    57    58   ar
    43    53    54   ar
    44    59    58    1
    45    58    56   ar
    46    54    56   ar
    47    94    92   ar
    48    13    12    2
    49    12    24   am
    50    38    37    2
    51    90    92   ar
    52    90    89    1
    53    35    34    2
    54    34    33    1
    55    24    25    1
    56    37    39   am
    57    37    36    1
    58    89    86    1
    59    86    87    1
    60    86    85    1
    61    32    33    1
    62    32    26   am
    63    80    79    2
    64    88    87    2
    65    33    36    1
    66    25    26    1
    67    25    28    1
    68    83    82    1
    69    26    27    2
    70    85    79   am
    71    79    78    1
    72    81    82    1
    73    81    78    1
    74    30    29   ar
    75    82    84    1
    76    28    29    1
    77    29    31   ar
    78    78    77    1
    79    97    98    1
    80    98    99    1
    81    75    74    1
    82    72    71    2
    83    99   100    2
    84    71    70    1
    85    68    67    1
    86    76    74    1
    87    74    73    1
    88    67    66    1
    89    73    70    1
    90    70    69    1
    91    66    65    1
    92    65    64    1
    93    60    61    1
    94    61    64    1
    95    61    62    1
    96    62    63    2
