@<TRIPOS>MOLECULE
tmp/2aamF00.pdb
 120 116 0 0 0
SMALL
GASTEIGER

@<TRIPOS>ATOM
      1  N        -60.4960   29.3980  -59.3670 N.3    14  LEU14      -0.1231
      2  CA       -60.4780   30.0960  -58.0490 C.3    14  LEU14       0.1693
      3  C        -60.9850   31.5380  -58.1110 C.2    14  LEU14       0.2591
      4  O        -61.1250   32.1930  -57.0760 O.2    14  LEU14      -0.2718
      5  CB       -59.0710   30.0530  -57.4470 C.3    14  LEU14       0.0284
      6  CG       -58.5080   28.6430  -57.2430 C.3    14  LEU14       0.0019
      7  CD1      -57.0540   28.7540  -56.8050 C.3    14  LEU14       0.0001
      8  CD2      -59.3770   27.8470  -56.2320 C.3    14  LEU14       0.0001
      9  N        -61.2560   32.0250  -59.3180 N.am   15  GLN15      -0.1979
     10  CA       -61.8780   33.3360  -59.4900 C.3    15  GLN15       0.1601
     11  C        -63.0240   33.2530  -60.4930 C.2    15  GLN15       0.2287
     12  O        -62.8880   32.5800  -61.5220 O.2    15  GLN15      -0.2864
     13  CB       -60.8420   34.3670  -59.9810 C.3    15  GLN15       0.0394
     14  CG       -59.4970   34.3440  -59.2560 C.3    15  GLN15       0.0908
     15  CD       -58.5860   35.5050  -59.6620 C.2    15  GLN15       0.2608
     16  OE1      -58.7830   36.6550  -59.1970 O.2    15  GLN15      -0.2717
     17  NE2      -57.5940   35.2290  -60.5280 N.am   15  GLN15      -0.0878
     18  N        -62.9770   28.4240  -55.0960 N.3    33  ASP33      -0.1239
     19  CA       -62.8390   29.1320  -53.8640 C.3    33  ASP33       0.1674
     20  C        -64.1400   29.0340  -53.0670 C.2    33  ASP33       0.2266
     21  O        -65.1970   28.8280  -53.6330 O.2    33  ASP33      -0.2867
     22  CB       -62.4890   30.5910  -54.0980 C.3    33  ASP33       0.1410
     23  CG       -61.8270   31.2110  -52.8730 C.2    33  ASP33       0.3668
     24  OD1      -60.7340   30.7500  -52.5240 O.co2  33  ASP33      -0.2456
     25  OD2      -62.3910   32.1430  -52.2630 O.co2  33  ASP33      -0.2456
     26  N        -65.3290   36.2140  -54.3690 N.3    37  ASP37      -0.1225
     27  CA       -64.2020   37.1280  -54.5690 C.3    37  ASP37       0.1805
     28  C        -63.0440   36.9210  -53.5730 C.2    37  ASP37       0.2598
     29  O        -62.1690   37.7820  -53.4640 O.2    37  ASP37      -0.2718
     30  CB       -64.7090   38.5810  -54.5840 C.3    37  ASP37       0.1424
     31  CG       -65.2740   39.0330  -53.2450 C.2    37  ASP37       0.3668
     32  OD1      -65.1770   38.3140  -52.2060 O.co2  37  ASP37      -0.2456
     33  OD2      -65.8370   40.1490  -53.2380 O.co2  37  ASP37      -0.2456
     34  N        -63.0280   35.7720  -52.8910 N.am   38  GLY38      -0.1957
     35  CA       -62.0780   35.5020  -51.8230 C.3    38  GLY38       0.1869
     36  C        -62.4550   36.0760  -50.4630 C.2    38  GLY38       0.2309
     37  O        -62.0030   35.5500  -49.4350 O.2    38  GLY38      -0.2863
     38  N        -61.0870   25.0990  -52.1530 N.3    61  TYR61      -0.1241
     39  CA       -59.7090   25.5040  -51.9650 C.3    61  TYR61       0.1605
     40  C        -59.5160   26.1150  -50.5830 C.2    61  TYR61       0.2264
     41  O        -60.2700   26.9930  -50.2020 O.2    61  TYR61      -0.2867
     42  CB       -59.3450   26.5390  -52.9700 C.3    61  TYR61       0.0534
     43  CG       -57.9480   27.0800  -52.8450 C.ar   61  TYR61      -0.0201
     44  CD1      -56.8760   26.4260  -53.4480 C.ar   61  TYR61      -0.0009
     45  CD2      -57.6890   28.2850  -52.1610 C.ar   61  TYR61      -0.0009
     46  CE1      -55.5990   26.9440  -53.3680 C.ar   61  TYR61       0.0417
     47  CE2      -56.3730   28.8050  -52.0650 C.ar   61  TYR61       0.0417
     48  CZ       -55.3430   28.1300  -52.6600 C.ar   61  TYR61       0.1957
     49  OH       -54.0340   28.6070  -52.5970 O.3    61  TYR61      -0.2866
     50  N        -53.5950   34.5880  -46.2920 N.3    68  GLU68      -0.1245
     51  CA       -53.9760   35.4310  -47.4070 C.3    68  GLU68       0.1567
     52  C        -54.6900   36.6730  -46.8710 C.2    68  GLU68       0.2260
     53  O        -55.6340   36.5530  -46.0760 O.2    68  GLU68      -0.2867
     54  CB       -54.9120   34.6480  -48.3200 C.3    68  GLU68       0.0388
     55  CG       -54.3240   33.3520  -48.9440 C.3    68  GLU68       0.1160
     56  CD       -55.4130   32.4240  -49.4300 C.2    68  GLU68       0.3649
     57  OE1      -56.1700   31.9270  -48.6090 O.co2  68  GLU68      -0.2457
     58  OE2      -55.5110   32.1690  -50.6130 O.co2  68  GLU68      -0.2457
     59  N        -56.8030   39.0170  -47.6490 N.3    70  TYR70      -0.1227
     60  CA       -58.1710   39.3570  -47.9940 C.3    70  TYR70       0.1736
     61  C        -59.1530   38.3730  -47.3680 C.2    70  TYR70       0.2595
     62  O        -60.3680   38.5000  -47.5710 O.2    70  TYR70      -0.2718
     63  CB       -58.3590   39.3240  -49.5390 C.3    70  TYR70       0.0548
     64  CG       -57.8900   38.0170  -50.1870 C.ar   70  TYR70      -0.0200
     65  CD1      -58.7330   36.9090  -50.2840 C.ar   70  TYR70      -0.0009
     66  CD2      -56.5970   37.9010  -50.6930 C.ar   70  TYR70      -0.0009
     67  CE1      -58.2980   35.7310  -50.8860 C.ar   70  TYR70       0.0417
     68  CE2      -56.1590   36.7160  -51.2900 C.ar   70  TYR70       0.0417
     69  CZ       -57.0070   35.6420  -51.3610 C.ar   70  TYR70       0.1957
     70  OH       -56.5590   34.4880  -51.9230 O.3    70  TYR70      -0.2866
     71  N        -58.6550   37.4070  -46.6000 N.am   71  ARG71      -0.1980
     72  CA       -59.5280   36.4590  -45.9410 C.3    71  ARG71       0.1597
     73  C        -60.1410   37.0170  -44.6690 C.2    71  ARG71       0.2287
     74  O        -59.5990   37.9130  -44.0520 O.2    71  ARG71      -0.2864
     75  CB       -58.7960   35.1630  -45.6240 C.3    71  ARG71       0.0334
     76  CG       -58.2530   34.4240  -46.8310 C.3    71  ARG71       0.0492
     77  CD       -59.3450   33.7880  -47.6370 C.3    71  ARG71       0.2205
     78  NE       -58.7830   32.9880  -48.7210 N.pl3  71  ARG71      -0.0865
     79  CZ       -59.4530   32.5510  -49.7920 C.cat  71  ARG71       0.5346
     80  NH1      -60.7300   32.8620  -49.9970 N.pl3  71  ARG71       0.1354
     81  NH2      -58.8200   31.8120  -50.6910 N.pl3  71  ARG71       0.1354
     82  N        -46.4760   35.3600  -54.8870 N.3    93  TRP93      -0.1241
     83  CA       -47.8960   35.5390  -54.6630 C.3    93  TRP93       0.1605
     84  C        -48.1380   36.6750  -53.6930 C.2    93  TRP93       0.2264
     85  O        -48.3390   36.4430  -52.5150 O.2    93  TRP93      -0.2867
     86  CB       -48.5470   34.2480  -54.1480 C.3    93  TRP93       0.0550
     87  CG       -48.4350   33.1900  -55.1300 C.ar   93  TRP93       0.0003
     88  CD1      -47.4910   32.2190  -55.1650 C.ar   93  TRP93       0.0946
     89  CD2      -49.2530   33.0060  -56.2810 C.ar   93  TRP93       0.0152
     90  NE1      -47.6630   31.4360  -56.2690 N.ar   93  TRP93      -0.2442
     91  CE2      -48.7400   31.8920  -56.9780 C.ar   93  TRP93       0.0810
     92  CE3      -50.3580   33.6880  -56.8110 C.ar   93  TRP93       0.0012
     93  CZ2      -49.2980   31.4330  -58.2010 C.ar   93  TRP93       0.0191
     94  CZ3      -50.9260   33.2340  -58.0170 C.ar   93  TRP93       0.0001
     95  CH2      -50.3900   32.1150  -58.6970 C.ar   93  TRP93       0.0015
     96  N        -51.9700   31.6580  -65.0410 N.3   267  LEU267     -0.1231
     97  CA       -52.1180   31.1210  -63.7000 C.3   267  LEU267      0.1693
     98  C        -53.2650   31.7190  -62.9000 C.2   267  LEU267      0.2592
     99  O        -53.3790   31.4360  -61.7310 O.2   267  LEU267     -0.2718
    100  CB       -50.8210   31.1750  -62.8770 C.3   267  LEU267      0.0284
    101  CG       -49.4400   30.8810  -63.4980 C.3   267  LEU267      0.0019
    102  CD1      -48.3350   31.2920  -62.4970 C.3   267  LEU267      0.0001
    103  CD2      -49.2670   29.4430  -63.8710 C.3   267  LEU267      0.0001
    104  N        -54.1520   32.4850  -63.5290 N.am  268  GLU268     -0.1966
    105  CA       -55.1970   33.2060  -62.7770 C.3   268  GLU268      0.1733
    106  C        -56.3590   32.3150  -62.3290 C.2   268  GLU268      0.2616
    107  O        -57.0340   32.6400  -61.3590 O.2   268  GLU268     -0.2715
    108  CB       -55.7610   34.3440  -63.6060 C.3   268  GLU268      0.0429
    109  CG       -54.7820   35.4790  -63.9110 C.3   268  GLU268      0.1163
    110  CD       -54.4770   36.3620  -62.7220 C.2   268  GLU268      0.3649
    111  OE1      -55.0550   36.1920  -61.6170 O.co2 268  GLU268     -0.2457
    112  OE2      -53.6330   37.2540  -62.9060 O.co2 268  GLU268     -0.2457
    113  N        -56.5850   31.2080  -63.0360 N.am  269  LEU269     -0.1977
    114  CA       -57.6890   30.2920  -62.7510 C.3   269  LEU269      0.1596
    115  C        -59.0200   31.0780  -62.6990 C.2   269  LEU269      0.2287
    116  O        -59.8640   30.9310  -61.8100 O.2   269  LEU269     -0.2864
    117  CB       -57.3820   29.4560  -61.5120 C.3   269  LEU269      0.0297
    118  CG       -56.0970   28.6020  -61.5910 C.3   269  LEU269      0.0022
    119  CD1      -55.6780   28.1780  -60.2420 C.3   269  LEU269      0.0001
    120  CD2      -56.2720   27.3810  -62.5350 C.3   269  LEU269      0.0001
@<TRIPOS>BOND
     1    96    97    1
     2   109   108    1
     3   109   110    1
     4   103   101    1
     5    97    98    1
     6    97   100    1
     7   108   105    1
     8   104    98   am
     9   104   105    1
    10   101   100    1
    11   101   102    1
    12   113   114    1
    13   113   106   am
    14   112   110   ar
    15    98    99    2
    16   105   106    1
    17   114   115    1
    18   114   117    1
    19   110   111   ar
    20   115   116    2
    21   120   118    1
    22   106   107    2
    23   118   117    1
    24   118   119    1
    25    12    11    2
    26    17    15   am
    27    11    10    1
    28    13    10    1
    29    13    14    1
    30    15    14    1
    31    15    16    2
    32    10     9    1
    33     1     2    1
    34     9     3   am
    35    95    93   ar
    36    95    94   ar
    37    93    91   ar
    38     3     2    1
    39     3     4    2
    40     2     5    1
    41    94    92   ar
    42     5     6    1
    43     6     7    1
    44     6     8    1
    45    91    89   ar
    46    91    90   ar
    47    92    89   ar
    48    89    87   ar
    49    90    88   ar
    50    88    87   ar
    51    87    86    1
    52    18    19    1
    53    82    83    1
    54    83    86    1
    55    83    84    1
    56    30    27    1
    57    30    31    1
    58    27    26    1
    59    27    28    1
    60    22    19    1
    61    22    23    1
    62    19    20    1
    63    84    85    2
    64    21    20    2
    65    28    29    2
    66    28    34   am
    67    44    46   ar
    68    44    43   ar
    69    46    48   ar
    70    31    33   ar
    71    31    32   ar
    72    42    43    1
    73    42    39    1
    74    34    35    1
    75    23    24   ar
    76    23    25   ar
    77    43    45   ar
    78    48    49    1
    79    48    47   ar
    80    45    47   ar
    81    38    39    1
    82    39    40    1
    83    70    69    1
    84    35    36    1
    85    69    68   ar
    86    69    67   ar
    87    68    66   ar
    88    67    65   ar
    89    66    64   ar
    90    81    79    1
    91    58    56   ar
    92    40    41    2
    93    36    37    2
    94    65    64   ar
    95    64    63    1
    96    80    79    1
    97    79    78    2
    98    63    60    1
    99    56    55    1
   100    56    57   ar
   101    55    54    1
   102    78    77    1
   103    54    51    1
   104    60    59    1
   105    60    61    1
   106    77    76    1
   107    62    61    2
   108    51    52    1
   109    51    50    1
   110    61    71   am
   111    52    53    2
   112    76    75    1
   113    71    72    1
   114    72    75    1
   115    72    73    1
   116    73    74    2
