@<TRIPOS>MOLECULE
tmp/2aaqA01.pdb
 105 98 0 0 0
SMALL
GASTEIGER

@<TRIPOS>ATOM
      1  N        -25.8950    4.5550  103.6420 N.3   155  SER155     -0.1202
      2  CA       -24.9340    4.2970  102.5820 C.3   155  SER155      0.2020
      3  C        -25.3240    3.0760  101.7640 C.2   155  SER155      0.2619
      4  O        -24.6880    2.7710  100.7590 O.2   155  SER155     -0.2717
      5  CB       -23.5360    4.1000  103.1650 C.3   155  SER155      0.2103
      6  OG       -23.4810    2.9210  103.9480 O.3   155  SER155     -0.2182
      7  N        -26.3600    2.3680  102.2050 N.am  156  LEU156     -0.1965
      8  CA       -26.8300    1.1960  101.4770 C.3   156  LEU156      0.1728
      9  C        -27.5970    1.6390  100.2300 C.2   156  LEU156      0.2617
     10  O        -27.6290    0.9340   99.2270 O.2   156  LEU156     -0.2715
     11  CB       -27.7370    0.3320  102.3610 C.3   156  LEU156      0.0311
     12  CG       -27.1180   -0.7200  103.3010 C.3   156  LEU156      0.0022
     13  CD1      -26.2740   -1.7050  102.4990 C.3   156  LEU156      0.0001
     14  CD2      -26.2650   -0.0480  104.3480 C.3   156  LEU156      0.0001
     15  N        -28.2120    2.8150  100.2920 N.am  157  GLY157     -0.1940
     16  CA       -28.9630    3.2990   99.1490 C.3   157  GLY157      0.2014
     17  C        -28.1000    4.0580   98.1600 C.2   157  GLY157      0.2638
     18  O        -27.0880    4.6360   98.5350 O.2   157  GLY157     -0.2714
     19  N        -28.4910    4.0450   96.8920 N.am  158  ILE158     -0.1977
     20  CA       -27.7550    4.7640   95.8530 C.3   158  ILE158      0.1596
     21  C        -28.4550    6.0720   95.4880 C.2   158  ILE158      0.2287
     22  O        -29.4340    6.4790   96.1200 O.2   158  ILE158     -0.2864
     23  CB       -27.6280    3.9360   94.5590 C.3   158  ILE158      0.0276
     24  CG1      -29.0060    3.4170   94.1320 C.3   158  ILE158      0.0022
     25  CG2      -26.6640    2.7920   94.7700 C.3   158  ILE158      0.0022
     26  CD1      -29.0360    2.8680   92.7220 C.3   158  ILE158      0.0001
     27  N        -26.0200    6.2680   90.7330 N.3   162  GLY162     -0.1225
     28  CA       -26.0060    4.8180   90.7530 C.3   162  GLY162      0.1811
     29  C        -26.9950    4.2630   89.7480 C.2   162  GLY162      0.2280
     30  O        -26.7520    3.2450   89.0930 O.2   162  GLY162     -0.2866
     31  N        -25.6850    3.3600   86.6390 N.3   165  GLN165     -0.1231
     32  CA       -24.6150    2.3760   86.6880 C.3   165  GLN165      0.1698
     33  C        -25.2520    1.0020   86.7800 C.2   165  GLN165      0.2592
     34  O        -24.5900   -0.0050   86.5680 O.2   165  GLN165     -0.2718
     35  CB       -23.7020    2.6160   87.8880 C.3   165  GLN165      0.0381
     36  CG       -22.7110    3.7510   87.7190 C.3   165  GLN165      0.0905
     37  CD       -21.8550    3.9560   88.9630 C.2   165  GLN165      0.2608
     38  OE1      -22.3650    4.2760   90.0470 O.2   165  GLN165     -0.2717
     39  NE2      -20.5450    3.7680   88.8150 N.am  165  GLN165     -0.0878
     40  N        -26.5430    0.9770   87.0930 N.am  166  LEU166     -0.1980
     41  CA       -27.2950   -0.2700   87.2060 C.3   166  LEU166      0.1596
     42  C        -27.2290   -1.0890   85.9260 C.2   166  LEU166      0.2287
     43  O        -27.3850   -0.5600   84.8260 O.2   166  LEU166     -0.2864
     44  CB       -28.7620    0.0150   87.5240 C.3   166  LEU166      0.0297
     45  CG       -29.1370    0.4280   88.9460 C.3   166  LEU166      0.0022
     46  CD1      -30.5270    1.0680   88.9400 C.3   166  LEU166      0.0001
     47  CD2      -29.0940   -0.7930   89.8750 C.3   166  LEU166      0.0001
     48  N        -29.0150   -4.1010   85.8660 N.3   168  GLU168     -0.1245
     49  CA       -30.2210   -4.9140   85.8750 C.3   168  GLU168      0.1567
     50  C        -31.4100   -4.1320   86.3950 C.2   168  GLU168      0.2260
     51  O        -31.2550   -3.0640   86.9830 O.2   168  GLU168     -0.2867
     52  CB       -30.0290   -6.1370   86.7700 C.3   168  GLU168      0.0388
     53  CG       -28.7530   -6.9140   86.5230 C.3   168  GLU168      0.1160
     54  CD       -28.6820   -7.5010   85.1250 C.2   168  GLU168      0.3649
     55  OE1      -29.6690   -8.1400   84.6980 O.co2 168  GLU168     -0.2457
     56  OE2      -27.6350   -7.3330   84.4580 O.co2 168  GLU168     -0.2457
     57  N        -34.0040   -3.5360   89.0500 N.3   170  PRO170     -0.2116
     58  CA       -34.2830   -3.9280   90.4280 C.3   170  PRO170      0.1372
     59  C        -35.6960   -4.4910   90.4940 C.2   170  PRO170      0.2244
     60  O        -36.6410   -3.8610   90.0190 O.2   170  PRO170     -0.2868
     61  CB       -34.1440   -2.6160   91.1880 C.3   170  PRO170      0.0268
     62  CG       -33.0540   -1.9240   90.4290 C.3   170  PRO170      0.0207
     63  CD       -33.4060   -2.1900   88.9880 C.3   170  PRO170      0.0892
     64  N        -29.1560   -4.3430  105.0830 N.3   239  LYS239     -0.1245
     65  CA       -29.1650   -5.4830  104.1750 C.3   239  LYS239      0.1561
     66  C        -29.6950   -6.7460  104.8260 C.2   239  LYS239      0.2260
     67  O        -29.2400   -7.1430  105.8900 O.2   239  LYS239     -0.2867
     68  CB       -27.7530   -5.7300  103.6330 C.3   239  LYS239      0.0271
     69  CG       -26.6730   -5.7090  104.7030 C.3   239  LYS239      0.0035
     70  CD       -25.2670   -5.7660  104.1020 C.3   239  LYS239      0.0206
     71  CE       -24.1870   -5.6130  105.1860 C.3   239  LYS239      0.1093
     72  NZ       -24.2790   -6.6550  106.2600 N.3   239  LYS239     -0.1314
     73  N        -32.0070   -9.0120   99.9770 N.3   243  GLY243     -0.1210
     74  CA       -31.7980   -7.6350   99.5820 C.3   243  GLY243      0.1956
     75  C        -31.6680   -6.5990  100.6770 C.2   243  GLY243      0.2611
     76  O        -30.6720   -6.5770  101.4000 O.2   243  GLY243     -0.2717
     77  N        -32.6790   -5.7420  100.7970 N.am  244  LEU244     -0.1979
     78  CA       -32.6670   -4.6620  101.7750 C.3   244  LEU244      0.1596
     79  C        -33.9940   -4.4600  102.4980 C.2   244  LEU244      0.2287
     80  O        -35.0670   -4.6870  101.9340 O.2   244  LEU244     -0.2864
     81  CB       -32.3020   -3.3570  101.0690 C.3   244  LEU244      0.0297
     82  CG       -30.9890   -2.6140  101.3210 C.3   244  LEU244      0.0022
     83  CD1      -29.8120   -3.5670  101.4040 C.3   244  LEU244      0.0001
     84  CD2      -30.8010   -1.6000  100.1950 C.3   244  LEU244      0.0001
     85  N        -36.2710   -5.1680   99.3390 N.3   265  VAL265     -0.1231
     86  CA       -36.0200   -4.0730   98.4230 C.3   265  VAL265      0.1692
     87  C        -34.7250   -4.3720   97.6780 C.2   265  VAL265      0.2592
     88  O        -33.6690   -4.5080   98.2950 O.2   265  VAL265     -0.2718
     89  CB       -35.8860   -2.7470   99.1790 C.3   265  VAL265      0.0266
     90  CG1      -35.6490   -1.6150   98.1990 C.3   265  VAL265      0.0020
     91  CG2      -37.1430   -2.4940   99.9980 C.3   265  VAL265      0.0020
     92  N        -34.8030   -4.4800   96.3530 N.am  266  ASP266     -0.1960
     93  CA       -33.6210   -4.7740   95.5520 C.3   266  ASP266      0.1840
     94  C        -32.6770   -3.6040   95.4400 C.2   266  ASP266      0.2622
     95  O        -31.5460   -3.7560   94.9800 O.2   266  ASP266     -0.2715
     96  CB       -34.0290   -5.2750   94.1810 C.3   266  ASP266      0.1450
     97  CG       -34.6600   -6.6300   94.2560 C.2   266  ASP266      0.3671
     98  OD1      -33.9790   -7.5550   94.7510 O.co2 266  ASP266     -0.2456
     99  OD2      -35.8290   -6.7710   93.8470 O.co2 266  ASP266     -0.2456
    100  N        -33.1660   -2.4300   95.8200 N.am  267  CYS267     -0.1968
    101  CA       -32.3490   -1.2220   95.8840 C.3   267  CYS267      0.1712
    102  C        -33.0730    0.0810   96.1120 C.2   267  CYS267      0.2296
    103  O        -34.1190    0.3610   95.5360 O.2   267  CYS267     -0.2864
    104  CB       -31.3280   -1.1180   94.7340 C.3   267  CYS267      0.0983
    105  SG       -31.2630    0.3310   93.6840 S.3   267  CYS267     -0.0798
@<TRIPOS>BOND
     1    56    54   ar
     2    55    54   ar
     3    43    42    2
     4    54    53    1
     5    48    49    1
     6    49    50    1
     7    49    52    1
     8    42    41    1
     9    50    51    2
    10    53    52    1
    11    34    33    2
    12    31    32    1
    13    32    33    1
    14    32    35    1
    15    33    40   am
    16    40    41    1
    17    41    44    1
    18    44    45    1
    19    36    35    1
    20    36    37    1
    21    39    37   am
    22    46    45    1
    23    45    47    1
    24    37    38    2
    25    63    57    1
    26    63    62    1
    27    57    58    1
    28    30    29    2
    29    29    28    1
    30    60    59    2
    31    58    59    1
    32    58    61    1
    33    62    61    1
    34    27    28    1
    35    26    24    1
    36   105   104    1
    37    99    97   ar
    38    24    23    1
    39    96    97    1
    40    96    93    1
    41    97    98   ar
    42    23    25    1
    43    23    20    1
    44   104   101    1
    45    95    94    2
    46    94    93    1
    47    94   100   am
    48    21    20    1
    49    21    22    2
    50   103   102    2
    51    93    92    1
    52   100   101    1
    53    20    19    1
    54   101   102    1
    55    92    87   am
    56    19    17   am
    57    87    88    2
    58    87    86    1
    59    17    18    2
    60    17    16    1
    61    90    89    1
    62    86    89    1
    63    86    85    1
    64    16    15    1
    65    89    91    1
    66    10     9    2
    67    74    73    1
    68    74    75    1
    69    84    82    1
    70     9    15   am
    71     9     8    1
    72    75    77   am
    73    75    76    2
    74     4     3    2
    75    77    78    1
    76    81    82    1
    77    81    78    1
    78    82    83    1
    79     8     7    1
    80     8    11    1
    81     3     7   am
    82     3     2    1
    83    78    79    1
    84    80    79    2
    85    11    12    1
    86    13    12    1
    87     2     5    1
    88     2     1    1
    89     5     6    1
    90    12    14    1
    91    68    65    1
    92    68    69    1
    93    70    69    1
    94    70    71    1
    95    65    66    1
    96    65    64    1
    97    66    67    2
    98    71    72    1
