@<TRIPOS>MOLECULE
tmp/2aawB00.pdb
 148 146 0 0 0
SMALL
GASTEIGER

@<TRIPOS>ATOM
      1  N          6.3030   36.4140   46.0190 N.3     9  TYR9       -0.1227
      2  CA         6.5940   37.3330   44.9330 C.3     9  TYR9        0.1736
      3  C          7.8320   36.8330   44.2050 C.2     9  TYR9        0.2595
      4  O          8.4280   35.8370   44.5980 O.2     9  TYR9       -0.2718
      5  CB         6.8620   38.7390   45.4780 C.3     9  TYR9        0.0548
      6  CG         6.7770   39.8220   44.4240 C.ar    9  TYR9       -0.0200
      7  CD1        5.5720   40.0860   43.7700 C.ar    9  TYR9       -0.0009
      8  CD2        7.8910   40.5810   44.0790 C.ar    9  TYR9       -0.0009
      9  CE1        5.4740   41.0800   42.8000 C.ar    9  TYR9        0.0417
     10  CE2        7.8080   41.5830   43.1060 C.ar    9  TYR9        0.0417
     11  CZ         6.5940   41.8250   42.4760 C.ar    9  TYR9        0.1957
     12  OH         6.4830   42.8230   41.5390 O.3     9  TYR9       -0.2866
     13  N          8.2090   37.5200   43.1340 N.am   10  PHE10      -0.1976
     14  CA         9.4000   37.1470   42.3900 C.3    10  PHE10       0.1639
     15  C         10.5860   37.6900   43.1660 C.2    10  PHE10       0.2290
     16  O         10.4060   38.4240   44.1390 O.2    10  PHE10      -0.2864
     17  CB         9.3830   37.7470   40.9820 C.3    10  PHE10       0.0560
     18  CG         8.3430   37.1410   40.0830 C.ar   10  PHE10      -0.0200
     19  CD1        7.0900   37.7300   39.9460 C.ar   10  PHE10      -0.0042
     20  CD2        8.5990   35.9430   39.4130 C.ar   10  PHE10      -0.0042
     21  CE1        6.1040   37.1310   39.1580 C.ar   10  PHE10      -0.0003
     22  CE2        7.6150   35.3400   38.6240 C.ar   10  PHE10      -0.0003
     23  CZ         6.3660   35.9370   38.4990 C.ar   10  PHE10      -0.0000
     24  N          6.3840   45.3970   43.2430 N.3    15  LYS15      -0.1245
     25  CA         5.1390   45.5790   43.9760 C.3    15  LYS15       0.1561
     26  C          5.0640   44.9170   45.3360 C.2    15  LYS15       0.2260
     27  O          4.0080   44.9110   45.9620 O.2    15  LYS15      -0.2867
     28  CB         3.9660   45.1220   43.1080 C.3    15  LYS15       0.0271
     29  CG         3.7150   46.0640   41.9480 C.3    15  LYS15       0.0035
     30  CD         2.6050   45.5880   41.0430 C.3    15  LYS15       0.0206
     31  CE         2.0730   46.7560   40.2250 C.3    15  LYS15       0.1093
     32  NZ         3.1780   47.6290   39.7120 N.3    15  LYS15      -0.1314
     33  N          6.5340   29.7520   39.8910 N.3    45  PHE45      -0.1227
     34  CA         5.2970   30.5020   39.7890 C.3    45  PHE45       0.1736
     35  C          4.1440   29.6170   39.2970 C.2    45  PHE45       0.2595
     36  O          3.0450   29.6660   39.8500 O.2    45  PHE45      -0.2718
     37  CB         5.4920   31.7080   38.8640 C.3    45  PHE45       0.0547
     38  CG         4.2820   32.5920   38.7530 C.ar   45  PHE45      -0.0202
     39  CD1        3.5740   32.9740   39.8910 C.ar   45  PHE45      -0.0042
     40  CD2        3.8520   33.0530   37.5120 C.ar   45  PHE45      -0.0042
     41  CE1        2.4510   33.8070   39.7940 C.ar   45  PHE45      -0.0003
     42  CE2        2.7290   33.8880   37.4030 C.ar   45  PHE45      -0.0003
     43  CZ         2.0290   34.2650   38.5470 C.ar   45  PHE45      -0.0000
     44  N          4.3870   28.8040   38.2700 N.am   46  LYS46      -0.1980
     45  CA         3.3350   27.9320   37.7530 C.3    46  LYS46       0.1596
     46  C          2.8670   26.9670   38.8360 C.2    46  LYS46       0.2287
     47  O          1.6690   26.7650   39.0240 O.2    46  LYS46      -0.2864
     48  CB         3.8290   27.1450   36.5370 C.3    46  LYS46       0.0298
     49  CG         4.2150   28.0250   35.3520 C.3    46  LYS46       0.0038
     50  CD         3.0520   28.9230   34.9080 C.3    46  LYS46       0.0206
     51  CE         3.4510   29.8300   33.7420 C.3    46  LYS46       0.1093
     52  NZ         2.3350   30.7210   33.3060 N.3    46  LYS46      -0.1314
     53  N          0.6710   28.7290   41.4710 N.3    49  LYS49      -0.1245
     54  CA        -0.7230   28.9290   41.1100 C.3    49  LYS49       0.1561
     55  C         -1.5520   27.6500   41.2060 C.2    49  LYS49       0.2260
     56  O         -2.7740   27.7040   41.3660 O.2    49  LYS49      -0.2867
     57  CB        -0.8200   29.5300   39.7080 C.3    49  LYS49       0.0271
     58  CG        -0.4350   31.0030   39.6630 C.3    49  LYS49       0.0035
     59  CD        -0.6140   31.5960   38.2800 C.3    49  LYS49       0.0206
     60  CE         0.3760   31.0030   37.2930 C.3    49  LYS49       0.1093
     61  NZ         0.2370   31.6060   35.9360 N.3    49  LYS49      -0.1314
     62  N         -4.6270   35.2590   40.0340 N.3    57  GLU57      -0.1231
     63  CA        -3.4290   34.6330   39.4870 C.3    57  GLU57       0.1699
     64  C         -2.2490   35.5850   39.3880 C.2    57  GLU57       0.2592
     65  O         -1.4330   35.4850   38.4710 O.2    57  GLU57      -0.2718
     66  CB        -3.7440   34.0380   38.1090 C.3    57  GLU57       0.0402
     67  CG        -4.8420   32.9800   38.1650 C.3    57  GLU57       0.1161
     68  CD        -5.1740   32.3840   36.8100 C.2    57  GLU57       0.3649
     69  OE1       -6.0570   31.5060   36.7600 O.co2  57  GLU57      -0.2457
     70  OE2       -4.5600   32.7870   35.7970 O.co2  57  GLU57      -0.2457
     71  N         -2.1660   36.5180   40.3280 N.am   58  GLN58      -0.1966
     72  CA        -1.0660   37.4730   40.3490 C.3    58  GLN58       0.1733
     73  C         -0.4040   37.4470   41.7220 C.2    58  GLN58       0.2616
     74  O         -0.9740   36.9540   42.7020 O.2    58  GLN58      -0.2715
     75  CB        -1.5620   38.9130   40.1230 C.3    58  GLN58       0.0408
     76  CG        -2.4170   39.1790   38.8890 C.3    58  GLN58       0.0908
     77  CD        -3.0890   40.5720   38.9290 C.2    58  GLN58       0.2608
     78  OE1       -3.7830   40.9280   39.9000 O.2    58  GLN58      -0.2717
     79  NE2       -2.8880   41.3540   37.8700 N.am   58  GLN58      -0.0878
     80  N          0.8130   37.9750   41.7740 N.am   59  VAL59      -0.1964
     81  CA         1.5340   38.1310   43.0270 C.3    59  VAL59       0.1712
     82  C          1.8010   39.6310   43.0660 C.2    59  VAL59       0.2458
     83  O          1.7530   40.3010   42.0340 O.2    59  VAL59      -0.2730
     84  CB         2.8570   37.3300   43.0700 C.3    59  VAL59       0.0289
     85  CG1        2.5520   35.8810   43.4500 C.3    59  VAL59       0.0023
     86  CG2        3.5710   37.3850   41.7190 C.3    59  VAL59       0.0023
     87  N          2.0980   40.1830   44.2450 N.am   60  PRO60      -0.2727
     88  CA         2.2110   39.5080   45.5370 C.3    60  PRO60       0.1402
     89  C          0.9540   38.8590   46.1100 C.2    60  PRO60       0.2269
     90  O         -0.1730   39.1930   45.7430 O.2    60  PRO60      -0.2865
     91  CB         2.7530   40.6090   46.4470 C.3    60  PRO60       0.0296
     92  CG         2.1290   41.8310   45.8790 C.3    60  PRO60       0.0237
     93  CD         2.2840   41.6380   44.3960 C.3    60  PRO60       0.0939
     94  N         -3.4740   41.5710   45.8350 N.3    71  GLN71      -0.1231
     95  CA        -3.4890   43.0010   45.5110 C.3    71  GLN71       0.1698
     96  C         -2.6790   43.7870   46.5400 C.2    71  GLN71       0.2593
     97  O         -3.1590   44.0570   47.6400 O.2    71  GLN71      -0.2718
     98  CB        -4.9300   43.5150   45.4460 C.3    71  GLN71       0.0381
     99  CG        -5.7220   43.0160   44.2370 C.3    71  GLN71       0.0905
    100  CD        -5.1950   43.5680   42.9180 C.2    71  GLN71       0.2608
    101  OE1       -4.4410   44.5500   42.8970 O.2    71  GLN71      -0.2717
    102  NE2       -5.6010   42.9510   41.8080 N.am   71  GLN71      -0.0878
    103  N         -1.4540   44.1580   46.1610 N.am   72  SER72      -0.1938
    104  CA        -0.5280   44.8700   47.0470 C.3    72  SER72       0.2055
    105  C         -1.0830   46.0920   47.7530 C.2    72  SER72       0.2642
    106  O         -0.8230   46.3010   48.9360 O.2    72  SER72      -0.2714
    107  CB         0.7580   45.2520   46.2920 C.3    72  SER72       0.2130
    108  OG         0.4890   46.0850   45.1760 O.3    72  SER72      -0.2179
    109  N         -1.8400   46.9060   47.0330 N.am   73  GLN73      -0.1976
    110  CA        -2.4130   48.1040   47.6230 C.3    73  GLN73       0.1601
    111  C         -3.3930   47.7880   48.7480 C.2    73  GLN73       0.2287
    112  O         -3.3660   48.4280   49.7990 O.2    73  GLN73      -0.2864
    113  CB        -3.0980   48.9290   46.5410 C.3    73  GLN73       0.0394
    114  CG        -2.1110   49.5520   45.5880 C.3    73  GLN73       0.0908
    115  CD        -2.7860   50.2470   44.4340 C.2    73  GLN73       0.2608
    116  OE1       -3.7170   51.0440   44.6240 O.2    73  GLN73      -0.2717
    117  NE2       -2.3200   49.9590   43.2200 N.am   73  GLN73      -0.0878
    118  N         11.7420   50.0040   33.0390 N.3   115  LEU115     -0.1231
    119  CA        11.5160   48.5930   32.7380 C.3   115  LEU115      0.1693
    120  C         11.0510   48.2670   31.3210 C.2   115  LEU115      0.2592
    121  O         11.5880   47.3640   30.6820 O.2   115  LEU115     -0.2718
    122  CB        10.5090   48.0020   33.7320 C.3   115  LEU115      0.0284
    123  CG        10.8620   48.0690   35.2220 C.3   115  LEU115      0.0019
    124  CD1        9.7650   47.3940   36.0440 C.3   115  LEU115      0.0001
    125  CD2       12.2010   47.3900   35.4600 C.3   115  LEU115      0.0001
    126  N         10.0620   49.0030   30.8280 N.am  116  PHE116     -0.1976
    127  CA         9.5040   48.7360   29.5080 C.3   116  PHE116      0.1639
    128  C         10.0880   49.5540   28.3570 C.2   116  PHE116      0.2290
    129  O          9.4680   49.6810   27.3010 O.2   116  PHE116     -0.2864
    130  CB         7.9840   48.8970   29.5830 C.3   116  PHE116      0.0560
    131  CG         7.3650   48.1690   30.7510 C.ar  116  PHE116     -0.0200
    132  CD1        6.3950   48.7810   31.5400 C.ar  116  PHE116     -0.0042
    133  CD2        7.7770   46.8750   31.0800 C.ar  116  PHE116     -0.0042
    134  CE1        5.8460   48.1160   32.6460 C.ar  116  PHE116     -0.0003
    135  CE2        7.2360   46.2020   32.1800 C.ar  116  PHE116     -0.0003
    136  CZ         6.2710   46.8220   32.9650 C.ar  116  PHE116     -0.0000
    137  N         14.8170   45.3710   39.8040 N.3   211  TYR211     -0.1241
    138  CA        13.6520   46.2470   39.8350 C.3   211  TYR211      0.1605
    139  C         12.8610   46.0240   41.1230 C.2   211  TYR211      0.2264
    140  O         13.2010   45.0670   41.8550 O.2   211  TYR211     -0.2867
    141  CB        12.7650   46.0000   38.6060 C.3   211  TYR211      0.0534
    142  CG        11.8030   44.8290   38.7090 C.ar  211  TYR211     -0.0201
    143  CD1       10.5500   44.9800   39.3050 C.ar  211  TYR211     -0.0009
    144  CD2       12.1340   43.5790   38.1830 C.ar  211  TYR211     -0.0009
    145  CE1        9.6460   43.9190   39.3720 C.ar  211  TYR211      0.0417
    146  CE2       11.2350   42.5080   38.2460 C.ar  211  TYR211      0.0417
    147  CZ         9.9930   42.6890   38.8400 C.ar  211  TYR211      0.1957
    148  OH         9.0980   41.6460   38.8930 O.3   211  TYR211     -0.2866
@<TRIPOS>BOND
     1   129   128    2
     2   128   127    1
     3   127   130    1
     4   127   126    1
     5   130   131    1
     6   121   120    2
     7   131   133   ar
     8   131   132   ar
     9   126   120   am
    10   133   135   ar
    11   120   119    1
    12   132   134   ar
    13   135   136   ar
    14   134   136   ar
    15   119   118    1
    16   119   122    1
    17    52    51    1
    18   122   123    1
    19    51    50    1
    20    50    49    1
    21   123   125    1
    22   123   124    1
    23    49    48    1
    24    70    68   ar
    25    61    60    1
    26    48    45    1
    27    69    68   ar
    28    68    67    1
    29    60    59    1
    30    42    40   ar
    31    42    43   ar
    32    40    38   ar
    33    45    44    1
    34    45    46    1
    35    79    77   am
    36    66    67    1
    37    66    63    1
    38   144   146   ar
    39   144   142   ar
    40   146   147   ar
    41    44    35   am
    42    59    58    1
    43    65    64    2
    44    23    22   ar
    45    23    21   ar
    46    43    41   ar
    47   141   142    1
    48   141   138    1
    49    22    20   ar
    50   142   143   ar
    51    38    37    1
    52    38    39   ar
    53    46    47    2
    54   147   148    1
    55   147   145   ar
    56    37    34    1
    57    76    77    1
    58    76    75    1
    59    77    78    2
    60    21    19   ar
    61    35    34    1
    62    35    36    2
    63   143   145   ar
    64    64    63    1
    65    64    71   am
    66    20    18   ar
    67    63    62    1
    68    58    57    1
    69    57    54    1
    70    32    31    1
    71    34    33    1
    72    41    39   ar
    73   137   138    1
    74   138   139    1
    75    19    18   ar
    76    18    17    1
    77    75    72    1
    78    31    30    1
    79    71    72    1
    80    72    73    1
    81    17    14    1
    82    30    29    1
    83    54    55    1
    84    54    53    1
    85   139   140    2
    86    55    56    2
    87    12    11    1
    88    86    84    1
    89    73    80   am
    90    73    74    2
    91    80    81    1
    92   102   100   am
    93    29    28    1
    94    83    82    2
    95    14    13    1
    96    14    15    1
    97    11     9   ar
    98    11    10   ar
    99     9     7   ar
   100   101   100    2
   101   100    99    1
   102    81    82    1
   103    81    84    1
   104    82    87   am
   105    84    85    1
   106    10     8   ar
   107    28    25    1
   108    13     3   am
   109    15    16    2
   110   117   115   am
   111    24    25    1
   112     7     6   ar
   113    25    26    1
   114     8     6   ar
   115     3     4    2
   116     3     2    1
   117    99    98    1
   118    87    93    1
   119    87    88    1
   120    93    92    1
   121     6     5    1
   122   115   116    2
   123   115   114    1
   124     2     5    1
   125     2     1    1
   126   108   107    1
   127    26    27    2
   128    98    95    1
   129    95    94    1
   130    95    96    1
   131    88    89    1
   132    88    91    1
   133   114   113    1
   134    90    89    2
   135    92    91    1
   136   103    96   am
   137   103   104    1
   138   107   104    1
   139    96    97    2
   140   113   110    1
   141   109   110    1
   142   109   105   am
   143   104   105    1
   144   110   111    1
   145   105   106    2
   146   111   112    2
