@<TRIPOS>MOLECULE
tmp/2aawB01.pdb
 112 108 0 0 0
SMALL
GASTEIGER

@<TRIPOS>ATOM
      1  N          6.3030   36.4140   46.0190 N.3     9  TYR9       -0.1241
      2  CA         6.5940   37.3330   44.9330 C.3     9  TYR9        0.1605
      3  C          7.8320   36.8330   44.2050 C.2     9  TYR9        0.2264
      4  O          8.4280   35.8370   44.5980 O.2     9  TYR9       -0.2867
      5  CB         6.8620   38.7390   45.4780 C.3     9  TYR9        0.0534
      6  CG         6.7770   39.8220   44.4240 C.ar    9  TYR9       -0.0201
      7  CD1        5.5720   40.0860   43.7700 C.ar    9  TYR9       -0.0009
      8  CD2        7.8910   40.5810   44.0790 C.ar    9  TYR9       -0.0009
      9  CE1        5.4740   41.0800   42.8000 C.ar    9  TYR9        0.0417
     10  CE2        7.8080   41.5830   43.1060 C.ar    9  TYR9        0.0417
     11  CZ         6.5940   41.8250   42.4760 C.ar    9  TYR9        0.1957
     12  OH         6.4830   42.8230   41.5390 O.3     9  TYR9       -0.2866
     13  N          9.9140   45.5630   43.2030 N.3    14  GLY14      -0.1210
     14  CA         8.6450   45.8610   42.5660 C.3    14  GLY14       0.1956
     15  C          7.4530   46.1620   43.4530 C.2    14  GLY14       0.2611
     16  O          7.4940   47.0560   44.3090 O.2    14  GLY14      -0.2717
     17  N          6.3840   45.3970   43.2430 N.am   15  LYS15      -0.1979
     18  CA         5.1390   45.5790   43.9760 C.3    15  LYS15       0.1596
     19  C          5.0640   44.9170   45.3360 C.2    15  LYS15       0.2287
     20  O          4.0080   44.9110   45.9620 O.2    15  LYS15      -0.2864
     21  CB         3.9660   45.1220   43.1080 C.3    15  LYS15       0.0298
     22  CG         3.7150   46.0640   41.9480 C.3    15  LYS15       0.0038
     23  CD         2.6050   45.5880   41.0430 C.3    15  LYS15       0.0206
     24  CE         2.0730   46.7560   40.2250 C.3    15  LYS15       0.1093
     25  NZ         3.1780   47.6290   39.7120 N.3    15  LYS15      -0.1314
     26  N         -1.8400   46.9060   47.0330 N.3    73  GLN73      -0.1245
     27  CA        -2.4130   48.1040   47.6230 C.3    73  GLN73       0.1566
     28  C         -3.3930   47.7880   48.7480 C.2    73  GLN73       0.2260
     29  O         -3.3660   48.4280   49.7990 O.2    73  GLN73      -0.2867
     30  CB        -3.0980   48.9290   46.5410 C.3    73  GLN73       0.0367
     31  CG        -2.1110   49.5520   45.5880 C.3    73  GLN73       0.0905
     32  CD        -2.7860   50.2470   44.4340 C.2    73  GLN73       0.2608
     33  OE1       -3.7170   51.0440   44.6240 O.2    73  GLN73      -0.2717
     34  NE2       -2.3200   49.9590   43.2200 N.am   73  GLN73      -0.0878
     35  N          1.4970   56.2970   43.1320 N.3   104  GLN104     -0.1245
     36  CA         1.1680   55.3210   42.1010 C.3   104  GLN104      0.1566
     37  C          1.2410   55.9050   40.7000 C.2   104  GLN104      0.2260
     38  O          1.7570   55.2670   39.7780 O.2   104  GLN104     -0.2867
     39  CB        -0.2350   54.7790   42.3220 C.3   104  GLN104      0.0367
     40  CG        -0.3020   53.2830   42.3470 C.3   104  GLN104      0.0905
     41  CD        -0.0900   52.7300   43.7320 C.2   104  GLN104      0.2608
     42  OE1       -0.9220   52.9330   44.6250 O.2   104  GLN104     -0.2717
     43  NE2        1.0240   52.0250   43.9290 N.am  104  GLN104     -0.0878
     44  N          5.0410   56.5170   39.9200 N.3   107  HIS107     -0.1226
     45  CA         5.7930   55.2600   39.9010 C.3   107  HIS107      0.1752
     46  C          5.5000   54.4850   38.6180 C.2   107  HIS107      0.2596
     47  O          6.4020   53.9020   38.0010 O.2   107  HIS107     -0.2718
     48  CB         5.4360   54.3990   41.1210 C.3   107  HIS107      0.0759
     49  CG         6.5430   53.4930   41.5640 C.ar  107  HIS107      0.0818
     50  ND1        6.5770   52.9150   42.8150 N.ar  107  HIS107     -0.2268
     51  CD2        7.6770   53.0980   40.9370 C.ar  107  HIS107      0.1154
     52  CE1        7.6850   52.2080   42.9420 C.ar  107  HIS107      0.1986
     53  NE2        8.3700   52.3030   41.8160 N.ar  107  HIS107     -0.2212
     54  N          4.2330   54.4780   38.2230 N.am  108  TYR108     -0.1976
     55  CA         3.8210   53.8060   36.9980 C.3   108  TYR108      0.1639
     56  C          4.6140   54.3730   35.8160 C.2   108  TYR108      0.2290
     57  O          5.0270   53.6440   34.9150 O.2   108  TYR108     -0.2864
     58  CB         2.3300   54.0340   36.7640 C.3   108  TYR108      0.0560
     59  CG         1.8880   53.7660   35.3530 C.ar  108  TYR108     -0.0198
     60  CD1        1.7340   52.4640   34.8830 C.ar  108  TYR108     -0.0009
     61  CD2        1.6320   54.8190   34.4780 C.ar  108  TYR108     -0.0009
     62  CE1        1.3300   52.2170   33.5670 C.ar  108  TYR108      0.0417
     63  CE2        1.2320   54.5880   33.1680 C.ar  108  TYR108      0.0417
     64  CZ         1.0810   53.2860   32.7180 C.ar  108  TYR108      0.1957
     65  OH         0.6770   53.0580   31.4170 O.3   108  TYR108     -0.2866
     66  N          8.2010   53.1320   35.9680 N.3   111  ASN111     -0.1240
     67  CA         8.2410   51.7490   35.5070 C.3   111  ASN111      0.1653
     68  C          8.2370   51.6450   33.9900 C.2   111  ASN111      0.2266
     69  O          8.9630   50.8270   33.4280 O.2   111  ASN111     -0.2867
     70  CB         7.0650   50.9530   36.0730 C.3   111  ASN111      0.1155
     71  CG         7.1940   50.7100   37.5570 C.2   111  ASN111      0.2627
     72  OD1        8.2980   50.5380   38.0700 O.2   111  ASN111     -0.2716
     73  ND2        6.0660   50.6760   38.2540 N.am  111  ASN111     -0.0877
     74  N         11.7420   50.0040   33.0390 N.3   115  LEU115     -0.1231
     75  CA        11.5160   48.5930   32.7380 C.3   115  LEU115      0.1693
     76  C         11.0510   48.2670   31.3210 C.2   115  LEU115      0.2592
     77  O         11.5880   47.3640   30.6820 O.2   115  LEU115     -0.2718
     78  CB        10.5090   48.0020   33.7320 C.3   115  LEU115      0.0284
     79  CG        10.8620   48.0690   35.2220 C.3   115  LEU115      0.0019
     80  CD1        9.7650   47.3940   36.0440 C.3   115  LEU115      0.0001
     81  CD2       12.2010   47.3900   35.4600 C.3   115  LEU115      0.0001
     82  N         10.0620   49.0030   30.8280 N.am  116  PHE116     -0.1976
     83  CA         9.5040   48.7360   29.5080 C.3   116  PHE116      0.1639
     84  C         10.0880   49.5540   28.3570 C.2   116  PHE116      0.2290
     85  O          9.4680   49.6810   27.3010 O.2   116  PHE116     -0.2864
     86  CB         7.9840   48.8970   29.5830 C.3   116  PHE116      0.0560
     87  CG         7.3650   48.1690   30.7510 C.ar  116  PHE116     -0.0200
     88  CD1        6.3950   48.7810   31.5400 C.ar  116  PHE116     -0.0042
     89  CD2        7.7770   46.8750   31.0800 C.ar  116  PHE116     -0.0042
     90  CE1        5.8460   48.1160   32.6460 C.ar  116  PHE116     -0.0003
     91  CE2        7.2360   46.2020   32.1800 C.ar  116  PHE116     -0.0003
     92  CZ         6.2710   46.8220   32.9650 C.ar  116  PHE116     -0.0000
     93  N         13.7390   53.7840   44.7200 N.3   171  ASP171     -0.1239
     94  CA        13.7500   53.0380   43.4740 C.3   171  ASP171      0.1674
     95  C         14.2010   53.9140   42.2990 C.2   171  ASP171      0.2266
     96  O         15.0370   53.5000   41.4970 O.2   171  ASP171     -0.2867
     97  CB        12.3490   52.4630   43.2320 C.3   171  ASP171      0.1410
     98  CG        12.3170   51.4460   42.1190 C.2   171  ASP171      0.3668
     99  OD1       13.3110   50.7090   41.9600 O.co2 171  ASP171     -0.2456
    100  OD2       11.2880   51.3700   41.4120 O.co2 171  ASP171     -0.2456
    101  N         14.8170   45.3710   39.8040 N.3   211  TYR211     -0.1241
    102  CA        13.6520   46.2470   39.8350 C.3   211  TYR211      0.1605
    103  C         12.8610   46.0240   41.1230 C.2   211  TYR211      0.2264
    104  O         13.2010   45.0670   41.8550 O.2   211  TYR211     -0.2867
    105  CB        12.7650   46.0000   38.6060 C.3   211  TYR211      0.0534
    106  CG        11.8030   44.8290   38.7090 C.ar  211  TYR211     -0.0201
    107  CD1       10.5500   44.9800   39.3050 C.ar  211  TYR211     -0.0009
    108  CD2       12.1340   43.5790   38.1830 C.ar  211  TYR211     -0.0009
    109  CE1        9.6460   43.9190   39.3720 C.ar  211  TYR211      0.0417
    110  CE2       11.2350   42.5080   38.2460 C.ar  211  TYR211      0.0417
    111  CZ         9.9930   42.6890   38.8400 C.ar  211  TYR211      0.1957
    112  OH         9.0980   41.6460   38.8930 O.3   211  TYR211     -0.2866
@<TRIPOS>BOND
     1    85    84    2
     2    84    83    1
     3    83    86    1
     4    83    82    1
     5    86    87    1
     6    77    76    2
     7    87    89   ar
     8    87    88   ar
     9    82    76   am
    10    89    91   ar
    11    76    75    1
    12    65    64    1
    13    88    90   ar
    14    91    92   ar
    15    90    92   ar
    16    64    63   ar
    17    64    62   ar
    18    75    74    1
    19    75    78    1
    20    63    61   ar
    21    69    68    2
    22    62    60   ar
    23    78    79    1
    24    68    67    1
    25    61    59   ar
    26    60    59   ar
    27    57    56    2
    28    79    81    1
    29    79    80    1
    30    59    58    1
    31    67    66    1
    32    67    70    1
    33    56    55    1
    34    70    71    1
    35    58    55    1
    36    55    54    1
    37    71    72    2
    38    71    73   am
    39    47    46    2
    40   108   110   ar
    41   108   106   ar
    42    54    46   am
    43   110   111   ar
    44   105   106    1
    45   105   102    1
    46    46    45    1
    47   106   107   ar
    48   111   112    1
    49   111   109   ar
    50   107   109   ar
    51    25    24    1
    52    38    37    2
    53   101   102    1
    54   102   103    1
    55    45    44    1
    56    45    48    1
    57    24    23    1
    58    37    36    1
    59    51    49   ar
    60    51    53   ar
    61    23    22    1
    62    48    49    1
    63   103   104    2
    64   100    98   ar
    65    96    95    2
    66    12    11    1
    67    49    50   ar
    68    53    52   ar
    69    22    21    1
    70    99    98   ar
    71    36    39    1
    72    36    35    1
    73    98    97    1
    74    95    94    1
    75    39    40    1
    76    40    41    1
    77    11     9   ar
    78    11    10   ar
    79    14    13    1
    80    14    15    1
    81     9     7   ar
    82    50    52   ar
    83    10     8   ar
    84    21    18    1
    85    34    32   am
    86    97    94    1
    87    17    15   am
    88    17    18    1
    89    15    16    2
    90    94    93    1
    91    41    43   am
    92    41    42    2
    93     7     6   ar
    94    18    19    1
    95     8     6   ar
    96     3     4    2
    97     3     2    1
    98     6     5    1
    99    32    33    2
   100    32    31    1
   101     2     5    1
   102     2     1    1
   103    19    20    2
   104    31    30    1
   105    30    27    1
   106    26    27    1
   107    27    28    1
   108    28    29    2
