@<TRIPOS>MOLECULE
tmp/2aaxA00.pdb
 194 181 0 0 0
SMALL
GASTEIGER

@<TRIPOS>ATOM
      1  N         19.2710   56.1910   11.1140 N.3    45  LEU45      -0.1245
      2  CA        20.1680   55.2360   11.7790 C.3    45  LEU45       0.1561
      3  C         20.8970   55.8700   12.9550 C.2    45  LEU45       0.2260
      4  O         21.0430   55.2510   14.0200 O.2    45  LEU45      -0.2867
      5  CB        21.1800   54.6150   10.7920 C.3    45  LEU45       0.0270
      6  CG        20.4720   53.8110    9.6800 C.3    45  LEU45       0.0019
      7  CD1       21.5580   53.1900    8.7710 C.3    45  LEU45       0.0001
      8  CD2       19.5490   52.6760   10.2200 C.3    45  LEU45       0.0001
      9  N         18.4740   56.0740   15.8080 N.3    48  LEU48      -0.1231
     10  CA        18.2910   54.7550   16.4320 C.3    48  LEU48       0.1693
     11  C         19.4950   54.3860   17.2860 C.2    48  LEU48       0.2592
     12  O         19.3570   53.8520   18.3940 O.2    48  LEU48      -0.2718
     13  CB        18.0560   53.6810   15.3540 C.3    48  LEU48       0.0284
     14  CG        16.6930   53.7010   14.6450 C.3    48  LEU48       0.0019
     15  CD1       16.6270   52.4660   13.7030 C.3    48  LEU48       0.0001
     16  CD2       15.5290   53.6770   15.6500 C.3    48  LEU48       0.0001
     17  N         20.7030   54.6490   16.7870 N.am   49  ASN49      -0.1974
     18  CA        21.8820   54.3520   17.6000 C.3    49  ASN49       0.1688
     19  C         21.9170   55.1550   18.9130 C.2    49  ASN49       0.2292
     20  O         22.3240   54.6460   19.9370 O.2    49  ASN49      -0.2864
     21  CB        23.1670   54.6480   16.8220 C.3    49  ASN49       0.1181
     22  CG        23.4050   53.6440   15.6780 C.2    49  ASN49       0.2629
     23  OD1       22.9690   52.4930   15.7530 O.2    49  ASN49      -0.2716
     24  ND2       24.1420   54.0640   14.6570 N.am   49  ASN49      -0.0877
     25  N         19.2730   56.2160   20.4560 N.3    51  LEU51      -0.1231
     26  CA        18.2170   55.5830   21.2540 C.3    51  LEU51       0.1693
     27  C         18.7560   54.3270   21.9390 C.2    51  LEU51       0.2591
     28  O         18.5080   54.1110   23.1300 O.2    51  LEU51      -0.2718
     29  CB        16.9900   55.2700   20.3970 C.3    51  LEU51       0.0284
     30  CG        15.8880   54.4020   21.0280 C.3    51  LEU51       0.0019
     31  CD1       15.2500   55.1760   22.2190 C.3    51  LEU51       0.0001
     32  CD2       14.8460   54.0360   19.9840 C.3    51  LEU51       0.0001
     33  N         19.5070   53.5190   21.1890 N.am   52  ALA52      -0.1980
     34  CA        20.1150   52.3260   21.7320 C.3    52  ALA52       0.1597
     35  C         21.0050   52.6030   22.9250 C.2    52  ALA52       0.2287
     36  O         20.9840   51.8550   23.8980 O.2    52  ALA52      -0.2864
     37  CB        20.9120   51.5760   20.6560 C.3    52  ALA52       0.0319
     38  N         18.8790   53.2720   25.8650 N.3    55  GLN55      -0.1245
     39  CA        18.2760   52.0180   26.2820 C.3    55  GLN55       0.1566
     40  C         19.2650   51.1280   27.0530 C.2    55  GLN55       0.2260
     41  O         18.8870   50.4850   28.0460 O.2    55  GLN55      -0.2867
     42  CB        17.7010   51.2770   25.0860 C.3    55  GLN55       0.0367
     43  CG        16.4040   51.9010   24.5710 C.3    55  GLN55       0.0905
     44  CD        15.8150   51.0980   23.4160 C.2    55  GLN55       0.2608
     45  OE1       16.3880   50.0810   23.0320 O.2    55  GLN55      -0.2717
     46  NE2       14.6770   51.5450   22.8680 N.am   55  GLN55      -0.0878
     47  N         23.2770   42.2050   24.0490 N.3    85  TRP85      -0.1227
     48  CA        22.5890   43.4950   23.9560 C.3    85  TRP85       0.1737
     49  C         21.5880   43.6170   22.7730 C.2    85  TRP85       0.2595
     50  O         20.4560   44.0800   22.9450 O.2    85  TRP85      -0.2718
     51  CB        23.6200   44.6360   23.9390 C.3    85  TRP85       0.0564
     52  CG        24.3320   44.7840   22.5920 C.ar   85  TRP85       0.0003
     53  CD1       25.3720   44.0370   22.1130 C.ar   85  TRP85       0.0946
     54  CD2       24.0460   45.7530   21.5920 C.ar   85  TRP85       0.0152
     55  NE1       25.7080   44.4470   20.8460 N.ar   85  TRP85      -0.2442
     56  CE2       24.9250   45.5270   20.5210 C.ar   85  TRP85       0.0810
     57  CE3       23.1080   46.7990   21.4920 C.ar   85  TRP85       0.0012
     58  CZ2       24.9210   46.3220   19.3630 C.ar   85  TRP85       0.0191
     59  CZ3       23.0980   47.5850   20.3360 C.ar   85  TRP85       0.0001
     60  CH2       24.0070   47.3320   19.2920 C.ar   85  TRP85       0.0015
     61  N         21.9900   43.1720   21.5810 N.am   86  MET86      -0.1979
     62  CA        21.1150   43.3260   20.4150 C.3    86  MET86       0.1605
     63  C         19.8560   42.4290   20.5610 C.2    86  MET86       0.2287
     64  O         18.7570   42.8010   20.1180 O.2    86  MET86      -0.2864
     65  CB        21.8930   42.9900   19.1280 C.3    86  MET86       0.0413
     66  CG        21.0620   43.1480   17.8520 C.3    86  MET86       0.0598
     67  SD        20.7440   44.8720   17.4590 S.3    86  MET86      -0.1393
     68  CE        22.3920   45.2910   16.9110 C.3    86  MET86       0.0692
     69  N         17.4830   44.3100   23.0960 N.3    89  LEU89      -0.1231
     70  CA        16.8400   45.5130   22.5440 C.3    89  LEU89       0.1693
     71  C         15.8810   45.1640   21.4240 C.2    89  LEU89       0.2592
     72  O         14.8280   45.7860   21.3130 O.2    89  LEU89      -0.2718
     73  CB        17.8740   46.5350   22.0670 C.3    89  LEU89       0.0284
     74  CG        18.8230   47.0390   23.1680 C.3    89  LEU89       0.0019
     75  CD1       19.6600   48.2620   22.6880 C.3    89  LEU89       0.0001
     76  CD2       18.0790   47.4020   24.4310 C.3    89  LEU89       0.0001
     77  N         16.2090   44.1700   20.5990 N.am   90  SER90      -0.1952
     78  CA        15.3060   43.8220   19.5120 C.3    90  SER90       0.1924
     79  C         14.0290   43.1100   20.0490 C.2    90  SER90       0.2314
     80  O         12.9210   43.3290   19.5320 O.2    90  SER90      -0.2863
     81  CB        16.0150   42.9910   18.3980 C.3    90  SER90       0.2116
     82  OG        16.4480   41.7620   18.9340 O.3    90  SER90      -0.2180
     83  N         11.8270   45.7190   21.5130 N.3    93  LEU93      -0.1245
     84  CA        11.1750   46.4750   20.4170 C.3    93  LEU93       0.1561
     85  C          9.9200   45.7490   19.9580 C.2    93  LEU93       0.2260
     86  O          8.8630   46.3530   19.7390 O.2    93  LEU93      -0.2867
     87  CB        12.1710   46.6720   19.2540 C.3    93  LEU93       0.0270
     88  CG        11.5190   47.1020   17.9310 C.3    93  LEU93       0.0019
     89  CD1       10.9870   48.5320   18.0250 C.3    93  LEU93       0.0001
     90  CD2       12.5510   47.0160   16.8030 C.3    93  LEU93       0.0001
     91  N          7.1900   46.2080   22.5990 N.3    96  ARG96      -0.1245
     92  CA         6.5190   47.5250   22.4800 C.3    96  ARG96       0.1563
     93  C          5.6140   47.6070   21.2360 C.2    96  ARG96       0.2260
     94  O          4.5060   48.1430   21.2570 O.2    96  ARG96      -0.2867
     95  CB         7.5430   48.6650   22.4490 C.3    96  ARG96       0.0307
     96  CG         8.3170   48.8300   23.7400 C.3    96  ARG96       0.0489
     97  CD         9.1480   50.0980   23.7460 C.3    96  ARG96       0.2205
     98  NE        10.1180   50.1530   22.6480 N.pl3  96  ARG96      -0.0865
     99  CZ        11.3290   49.5670   22.6570 C.cat  96  ARG96       0.5346
    100  NH1       11.7470   48.8700   23.7350 N.pl3  96  ARG96       0.1354
    101  NH2       12.1490   49.7240   21.5900 N.pl3  96  ARG96       0.1354
    102  N          9.8220   51.9200   18.0710 N.3   108  PHE108     -0.1241
    103  CA        11.1340   52.1250   18.6700 C.3   108  PHE108      0.1605
    104  C         11.0600   52.9460   19.9350 C.2   108  PHE108      0.2264
    105  O         11.6970   52.6050   20.9260 O.2   108  PHE108     -0.2867
    106  CB        12.0890   52.7810   17.6690 C.3   108  PHE108      0.0534
    107  CG        12.5750   51.8370   16.5930 C.ar  108  PHE108     -0.0203
    108  CD1       11.9680   51.8380   15.3170 C.ar  108  PHE108     -0.0042
    109  CD2       13.6130   50.9300   16.8510 C.ar  108  PHE108     -0.0042
    110  CE1       12.4270   50.9720   14.3090 C.ar  108  PHE108     -0.0003
    111  CE2       14.0430   50.0700   15.8550 C.ar  108  PHE108     -0.0003
    112  CZ        13.4560   50.0770   14.5970 C.ar  108  PHE108     -0.0000
    113  N         17.6260   49.6820    5.9900 N.3   124  MET124     -0.1245
    114  CA        17.6620   48.3120    6.5060 C.3   124  MET124      0.1570
    115  C         16.2700   47.7050    6.4900 C.2   124  MET124      0.2261
    116  O         15.8230   47.1240    7.4670 O.2   124  MET124     -0.2867
    117  CB        18.3030   48.2520    7.9100 C.3   124  MET124      0.0387
    118  CG        17.6150   49.1590    8.9110 C.3   124  MET124      0.0595
    119  SD        17.8740   48.5230   10.6380 S.3   124  MET124     -0.1393
    120  CE        16.7770   49.5620   11.5080 C.3   124  MET124      0.0692
    121  N         15.8180   43.9730    7.4360 N.3   127  LEU127     -0.1245
    122  CA        16.0440   43.7830    8.8840 C.3   127  LEU127      0.1561
    123  C         14.8200   44.2540    9.6790 C.2   127  LEU127      0.2260
    124  O         14.3920   43.6160   10.6470 O.2   127  LEU127     -0.2867
    125  CB        17.2780   44.5450    9.3310 C.3   127  LEU127      0.0270
    126  CG        18.5640   43.8870    8.8140 C.3   127  LEU127      0.0019
    127  CD1       19.8140   44.6450    9.2710 C.3   127  LEU127      0.0001
    128  CD2       18.6540   42.4500    9.2880 C.3   127  LEU127      0.0001
    129  N         12.4280   42.0360   12.3250 N.3   131  MET131     -0.1245
    130  CA        11.9830   42.3580   13.6630 C.3   131  MET131      0.1570
    131  C         10.4570   42.4020   13.7270 C.2   131  MET131      0.2261
    132  O          9.8460   41.9850   14.7270 O.2   131  MET131     -0.2867
    133  CB        12.6050   43.7090   14.0840 C.3   131  MET131      0.0387
    134  CG        14.1270   43.5570   14.2990 C.3   131  MET131      0.0595
    135  SD        14.9230   45.0470   14.8350 S.3   131  MET131     -0.1393
    136  CE        14.7290   46.0250   13.4740 C.3   131  MET131      0.0692
    137  N         21.1840   41.3070   12.2850 N.3   216  LEU216     -0.1245
    138  CA        21.2040   42.6620   12.8260 C.3   216  LEU216      0.1561
    139  C         22.6490   43.0650   13.1390 C.2   216  LEU216      0.2260
    140  O         23.0800   44.1890   12.8580 O.2   216  LEU216     -0.2867
    141  CB        20.3540   42.7670   14.1090 C.3   216  LEU216      0.0270
    142  CG        18.8290   42.5980   13.9590 C.3   216  LEU216      0.0019
    143  CD1       18.1820   42.6480   15.2900 C.3   216  LEU216      0.0001
    144  CD2       18.2290   43.7520   13.0750 C.3   216  LEU216      0.0001
    145  N         24.7900   43.9150    9.9920 N.3   219  PHE219     -0.1227
    146  CA        24.5610   45.2790    9.5360 C.3   219  PHE219      0.1736
    147  C         25.1930   46.2970   10.4890 C.2   219  PHE219      0.2595
    148  O         25.7870   47.2950   10.0560 O.2   219  PHE219     -0.2718
    149  CB        23.0540   45.5290    9.3690 C.3   219  PHE219      0.0547
    150  CG        22.7110   46.8320    8.6920 C.ar  219  PHE219     -0.0202
    151  CD1       22.5730   46.8770    7.3060 C.ar  219  PHE219     -0.0042
    152  CD2       22.4390   47.9710    9.4190 C.ar  219  PHE219     -0.0042
    153  CE1       22.1870   48.0820    6.6750 C.ar  219  PHE219     -0.0003
    154  CE2       22.0550   49.1500    8.8020 C.ar  219  PHE219     -0.0003
    155  CZ        21.9620   49.2400    7.4520 C.ar  219  PHE219     -0.0000
    156  N         25.0670   46.0620   11.7980 N.am  220  CYS220     -0.1970
    157  CA        25.6160   46.9570   12.7990 C.3   220  CYS220      0.1712
    158  C         27.1370   47.0750   12.6560 C.2   220  CYS220      0.2296
    159  O         27.6920   48.1790   12.6160 O.2   220  CYS220     -0.2864
    160  CB        25.2450   46.4380   14.1990 C.3   220  CYS220      0.0983
    161  SG        25.9050   47.4570   15.5310 S.3   220  CYS220     -0.0798
    162  N         27.9260   49.1070    9.4320 N.3   223  THR223     -0.1218
    163  CA        27.7810   50.5550    9.5780 C.3   223  THR223      0.1862
    164  C         28.7970   51.1640   10.5560 C.2   223  THR223      0.2287
    165  O         29.1730   52.3180   10.4050 O.2   223  THR223     -0.2866
    166  CB        26.3540   50.9540   10.0010 C.3   223  THR223      0.1770
    167  OG1       26.0080   50.3230   11.2460 O.3   223  THR223     -0.2211
    168  CG2       25.3510   50.4400    9.0130 C.3   223  THR223      0.0375
    169  N         27.0400   57.6960    9.6260 N.3   232  VAL232     -0.1245
    170  CA        26.2150   57.1540   10.6900 C.3   232  VAL232      0.1561
    171  C         26.9260   57.3630   12.0050 C.2   232  VAL232      0.2260
    172  O         28.0930   56.9620   12.1510 O.2   232  VAL232     -0.2867
    173  CB        25.9220   55.6590   10.4530 C.3   232  VAL232      0.0252
    174  CG1       25.1360   55.0680   11.6530 C.3   232  VAL232      0.0019
    175  CG2       25.1200   55.5140    9.1880 C.3   232  VAL232      0.0019
    176  N         27.4250   57.0240   16.2220 N.3   234  PHE234     -0.1241
    177  CA        27.2050   56.1010   17.3460 C.3   234  PHE234      0.1605
    178  C         27.5250   56.8280   18.6530 C.2   234  PHE234      0.2264
    179  O         28.5660   57.5250   18.7160 O.2   234  PHE234     -0.2867
    180  CB        28.1490   54.8890   17.2100 C.3   234  PHE234      0.0534
    181  CG        27.8090   53.9760   16.0700 C.ar  234  PHE234     -0.0203
    182  CD1       28.2590   54.2670   14.7900 C.ar  234  PHE234     -0.0042
    183  CD2       27.0470   52.8220   16.2820 C.ar  234  PHE234     -0.0042
    184  CE1       27.9070   53.4180   13.7180 C.ar  234  PHE234     -0.0003
    185  CE2       26.7260   51.9830   15.2390 C.ar  234  PHE234     -0.0003
    186  CZ        27.1720   52.2860   13.9480 C.ar  234  PHE234     -0.0000
    187  N         27.5190   52.7580   22.6470 N.3   238  LEU238     -0.1245
    188  CA        27.5960   51.7610   21.5820 C.3   238  LEU238      0.1561
    189  C         28.9930   51.6290   21.0570 C.2   238  LEU238      0.2260
    190  O         29.3870   50.5450   20.6800 O.2   238  LEU238     -0.2867
    191  CB        26.6080   52.0540   20.4360 C.3   238  LEU238      0.0270
    192  CG        25.3510   51.1660   20.3900 C.3   238  LEU238      0.0019
    193  CD1       24.5490   51.2280   21.7120 C.3   238  LEU238      0.0001
    194  CD2       24.4010   51.6380   19.2310 C.3   238  LEU238      0.0001
@<TRIPOS>BOND
     1   113   114    1
     2   115   114    1
     3   115   116    2
     4   114   117    1
     5   153   151   ar
     6   153   155   ar
     7   151   150   ar
     8   121   122    1
     9   155   154   ar
    10   117   118    1
    11   150   149    1
    12   150   152   ar
    13     7     6    1
    14   154   152   ar
    15   126   127    1
    16   126   128    1
    17   126   125    1
    18   122   125    1
    19   122   123    1
    20   118   119    1
    21   168   166    1
    22   175   173    1
    23   149   146    1
    24   162   163    1
    25   146   145    1
    26   146   147    1
    27   163   166    1
    28   163   164    1
    29   169   170    1
    30   123   124    2
    31     6     8    1
    32     6     5    1
    33   166   167    1
    34   148   147    2
    35   165   164    2
    36   173   170    1
    37   173   174    1
    38   147   156   am
    39   119   120    1
    40   170   171    1
    41     5     2    1
    42     1     2    1
    43     2     3    1
    44   156   157    1
    45   171   172    2
    46   137   138    1
    47   129   130    1
    48   159   158    2
    49   158   157    1
    50   157   160    1
    51   138   139    1
    52   138   141    1
    53   140   139    2
    54     3     4    2
    55   144   142    1
    56   136   135    1
    57   130   131    1
    58   130   133    1
    59    15    14    1
    60   184   186   ar
    61   184   182   ar
    62   131   132    2
    63   186   185   ar
    64   142   141    1
    65   142   143    1
    66   133   134    1
    67   160   161    1
    68   134   135    1
    69   110   112   ar
    70   110   108   ar
    71   112   111   ar
    72    14    13    1
    73    14    16    1
    74    24    22   am
    75   182   181   ar
    76   185   183   ar
    77   108   107   ar
    78    13    10    1
    79    22    23    2
    80    22    21    1
    81     9    10    1
    82   111   109   ar
    83   181   183   ar
    84   181   180    1
    85   176   177    1
    86    10    11    1
    87   107   109   ar
    88   107   106    1
    89    17    11   am
    90    17    18    1
    91    90    88    1
    92    21    18    1
    93    68    67    1
    94   180   177    1
    95    11    12    2
    96   177   178    1
    97    67    66    1
    98    18    19    1
    99   106   103    1
   100    66    65    1
   101    88    89    1
   102    88    87    1
   103   102   103    1
   104    81    82    1
   105    81    78    1
   106   178   179    2
   107   103   104    1
   108    19    20    2
   109    65    62    1
   110   194   192    1
   111    87    84    1
   112    60    58   ar
   113    60    59   ar
   114    58    56   ar
   115    78    79    1
   116    78    77    1
   117    80    79    2
   118    86    85    2
   119   104   105    2
   120    85    84    1
   121    32    30    1
   122    64    63    2
   123    59    57   ar
   124   192   191    1
   125   192   193    1
   126    29    30    1
   127    29    26    1
   128    62    63    1
   129    62    61    1
   130    84    83    1
   131   191   188    1
   132    25    26    1
   133    56    55   ar
   134    56    54   ar
   135    77    71   am
   136    37    34    1
   137   190   189    2
   138    55    53   ar
   139    30    31    1
   140   189   188    1
   141    33    34    1
   142    33    27   am
   143    93    94    2
   144    93    92    1
   145    26    27    1
   146    72    71    2
   147    71    70    1
   148    57    54   ar
   149    61    49   am
   150   188   187    1
   151   101    99    1
   152    54    52   ar
   153    34    35    1
   154    27    28    2
   155    73    70    1
   156    73    74    1
   157    53    52   ar
   158    95    92    1
   159    95    96    1
   160    92    91    1
   161    70    69    1
   162    52    51    1
   163    98    99    2
   164    98    97    1
   165    99   100    1
   166    75    74    1
   167    49    50    2
   168    49    48    1
   169    46    44   am
   170    35    36    2
   171    45    44    2
   172    74    76    1
   173    44    43    1
   174    96    97    1
   175    51    48    1
   176    48    47    1
   177    43    42    1
   178    42    39    1
   179    38    39    1
   180    39    40    1
   181    40    41    2
