@<TRIPOS>MOLECULE
tmp/2aazH01.pdb
 212 205 0 0 0
SMALL
GASTEIGER

@<TRIPOS>ATOM
      1  N        186.5540   48.8460    9.1130 N.3    28  ARG28      -0.1231
      2  CA       185.4840   48.5380    8.1770 C.3    28  ARG28       0.1694
      3  C        184.4860   49.6860    7.9570 C.2    28  ARG28       0.2592
      4  O        184.0960   49.9580    6.8240 O.2    28  ARG28      -0.2718
      5  CB       184.7200   47.3030    8.6880 C.3    28  ARG28       0.0321
      6  CG       183.5130   46.8930    7.8260 C.3    28  ARG28       0.0489
      7  CD       182.7790   45.7260    8.4490 C.3    28  ARG28       0.2205
      8  NE       182.2710   46.0620    9.7860 N.pl3  28  ARG28      -0.0865
      9  CZ       181.1900   46.8140   10.0000 C.cat  28  ARG28       0.5346
     10  NH1      180.5090   47.3110    8.9700 N.pl3  28  ARG28       0.1354
     11  NH2      180.7740   47.0560   11.2420 N.pl3  28  ARG28       0.1354
     12  N        184.0790   50.3470    9.0410 N.am   29  THR29      -0.1953
     13  CA       183.0740   51.4220    8.9740 C.3    29  THR29       0.1897
     14  C        183.5490   52.6890    8.2860 C.2    29  THR29       0.2313
     15  O        182.7410   53.4360    7.7320 O.2    29  THR29      -0.2863
     16  CB       182.5890   51.8320   10.3640 C.3    29  THR29       0.1794
     17  OG1      183.6530   52.5230   11.0380 O.3    29  THR29      -0.2208
     18  CG2      182.1810   50.5960   11.1900 C.3    29  THR29       0.0378
     19  N        176.2770   56.6050   32.6770 N.3    57  LYS57      -0.1231
     20  CA       175.4570   57.1200   31.5770 C.3    57  LYS57       0.1693
     21  C        174.1660   56.3250   31.6330 C.2    57  LYS57       0.2592
     22  O        174.1570   55.2330   32.1840 O.2    57  LYS57      -0.2718
     23  CB       176.1340   56.9460   30.2260 C.3    57  LYS57       0.0285
     24  CG       175.8500   55.6160   29.5600 C.3    57  LYS57       0.0035
     25  CD       176.4220   55.5870   28.1510 C.3    57  LYS57       0.0206
     26  CE       176.1960   54.2380   27.4880 C.3    57  LYS57       0.1093
     27  NZ       176.8050   54.2000   26.1230 N.3    57  LYS57      -0.1314
     28  N        173.0710   56.8770   31.1180 N.am   58  ARG58      -0.1966
     29  CA       171.8080   56.1360   31.1210 C.3    58  ARG58       0.1729
     30  C        171.8720   55.0800   30.0180 C.2    58  ARG58       0.2616
     31  O        172.0980   55.4050   28.8420 O.2    58  ARG58      -0.2715
     32  CB       170.6200   57.0710   30.8560 C.3    58  ARG58       0.0348
     33  CG       169.2690   56.3790   30.9920 C.3    58  ARG58       0.0492
     34  CD       168.1360   57.3890   31.0910 C.3    58  ARG58       0.2205
     35  NE       167.7920   58.0400   29.8370 N.pl3  58  ARG58      -0.0865
     36  CZ       167.9850   59.3170   29.5000 C.cat  58  ARG58       0.5346
     37  NH1      167.5740   59.7080   28.3010 N.pl3  58  ARG58       0.1354
     38  NH2      168.5940   60.1860   30.3100 N.pl3  58  ARG58       0.1354
     39  N        171.6940   53.8220   30.3960 N.am   59  VAL59      -0.1963
     40  CA       171.7240   52.7190   29.4430 C.3    59  VAL59       0.1727
     41  C        170.3000   52.2870   29.1300 C.2    59  VAL59       0.2616
     42  O        169.4890   52.1340   30.0450 O.2    59  VAL59      -0.2715
     43  CB       172.4890   51.4960   30.0080 C.3    59  VAL59       0.0290
     44  CG1      172.4960   50.3480   28.9780 C.3    59  VAL59       0.0023
     45  CG2      173.9200   51.9010   30.3570 C.3    59  VAL59       0.0023
     46  N        170.0140   52.0840   27.8400 N.am   60  PHE60      -0.1974
     47  CA       168.6740   51.6770   27.3790 C.3    60  PHE60       0.1639
     48  C        168.3800   50.2530   27.8250 C.2    60  PHE60       0.2290
     49  O        168.4460   49.3130   27.0290 O.2    60  PHE60      -0.2864
     50  CB       168.5980   51.7980   25.8390 C.3    60  PHE60       0.0560
     51  CG       167.2230   51.5660   25.2580 C.ar   60  PHE60      -0.0200
     52  CD1      167.0770   51.2660   23.9090 C.ar   60  PHE60      -0.0042
     53  CD2      166.0780   51.6710   26.0440 C.ar   60  PHE60      -0.0042
     54  CE1      165.8010   51.0740   23.3320 C.ar   60  PHE60      -0.0003
     55  CE2      164.7930   51.4840   25.4880 C.ar   60  PHE60      -0.0003
     56  CZ       164.6540   51.1850   24.1300 C.ar   60  PHE60      -0.0000
     57  N        166.5230   42.7720   23.1540 N.3    67  GLU67      -0.1245
     58  CA       167.4780   42.1010   22.2920 C.3    67  GLU67       0.1567
     59  C        167.8000   40.7050   22.8070 C.2    67  GLU67       0.2260
     60  O        167.8850   39.7460   22.0250 O.2    67  GLU67      -0.2867
     61  CB       168.7860   42.9200   22.1700 C.3    67  GLU67       0.0388
     62  CG       169.8290   42.2090   21.3020 C.3    67  GLU67       0.1160
     63  CD       171.1960   42.8440   21.3680 C.2    67  GLU67       0.3649
     64  OE1      171.6090   43.2200   22.4900 O.co2  67  GLU67      -0.2457
     65  OE2      171.8500   42.9640   20.2990 O.co2  67  GLU67      -0.2457
     66  N        165.5420   50.0510   18.1840 N.3    87  GLY87      -0.1210
     67  CA       166.1190   50.1320   16.8510 C.3    87  GLY87       0.1956
     68  C        167.6130   49.9030   16.7400 C.2    87  GLY87       0.2612
     69  O        168.2080   50.3200   15.7520 O.2    87  GLY87      -0.2717
     70  N        168.2090   49.2420   17.7350 N.am   88  ILE88      -0.1965
     71  CA       169.6510   49.0000   17.7340 C.3    88  ILE88       0.1727
     72  C        170.1490   48.2180   16.5260 C.2    88  ILE88       0.2616
     73  O        171.3120   48.3440   16.1390 O.2    88  ILE88      -0.2715
     74  CB       170.0950   48.2700   19.0200 C.3    88  ILE88       0.0290
     75  CG1      169.4020   46.9080   19.1310 C.3    88  ILE88       0.0022
     76  CG2      169.8050   49.1640   20.2440 C.3    88  ILE88       0.0023
     77  CD1      169.9000   46.0530   20.2980 C.3    88  ILE88       0.0001
     78  N        169.2820   47.4050   15.9250 N.am   89  TRP89      -0.1974
     79  CA       169.6870   46.6370   14.7470 C.3    89  TRP89       0.1640
     80  C        169.1380   47.2040   13.4290 C.2    89  TRP89       0.2290
     81  O        169.3100   46.5970   12.3620 O.2    89  TRP89      -0.2864
     82  CB       169.2680   45.1620   14.9110 C.3    89  TRP89       0.0576
     83  CG       170.2370   44.3490   15.7590 C.ar   89  TRP89       0.0006
     84  CD1      170.0500   43.9100   17.0380 C.ar   89  TRP89       0.0946
     85  CD2      171.5590   43.9610   15.3920 C.ar   89  TRP89       0.0152
     86  NE1      171.1790   43.2830   17.5000 N.ar   89  TRP89      -0.2442
     87  CE2      172.1260   43.3020   16.5090 C.ar   89  TRP89       0.0810
     88  CE3      172.3260   44.1140   14.2290 C.ar   89  TRP89       0.0012
     89  CZ2      173.4300   42.8000   16.5000 C.ar   89  TRP89       0.0191
     90  CZ3      173.6290   43.6110   14.2130 C.ar   89  TRP89       0.0001
     91  CH2      174.1670   42.9620   15.3450 C.ar   89  TRP89       0.0015
     92  N        172.0690   47.8780   10.6880 N.3    92  ASN92      -0.1240
     93  CA       172.6210   46.7880    9.8900 C.3    92  ASN92       0.1653
     94  C        171.5330   45.9540    9.2020 C.2    92  ASN92       0.2266
     95  O        171.8330   45.0780    8.3980 O.2    92  ASN92      -0.2867
     96  CB       173.5290   45.8940   10.7520 C.3    92  ASN92       0.1155
     97  CG       174.7170   46.6500   11.3080 C.2    92  ASN92       0.2627
     98  OD1      174.6880   47.1270   12.4440 O.2    92  ASN92      -0.2716
     99  ND2      175.7560   46.7980   10.4950 N.am   92  ASN92      -0.0877
    100  N        176.0150   40.9090    9.7540 N.3   172  LEU172     -0.1245
    101  CA       177.2010   41.2480   10.5290 C.3   172  LEU172      0.1561
    102  C        177.6390   40.0030   11.2940 C.2   172  LEU172      0.2260
    103  O        176.8040   39.2750   11.8390 O.2   172  LEU172     -0.2867
    104  CB       176.8580   42.3810   11.5100 C.3   172  LEU172      0.0270
    105  CG       177.9260   43.3450   12.0310 C.3   172  LEU172      0.0019
    106  CD1      178.5230   44.1220   10.8770 C.3   172  LEU172      0.0001
    107  CD2      177.3020   44.3160   13.0410 C.3   172  LEU172      0.0001
    108  N        179.7180   39.4590   17.3570 N.3   175  CYS175     -0.1221
    109  CA       180.7420   40.2010   18.0970 C.3   175  CYS175      0.1808
    110  C        181.0110   39.3670   19.3550 C.2   175  CYS175      0.2601
    111  O        182.1570   39.0420   19.6410 O.2   175  CYS175     -0.2717
    112  CB       180.2610   41.6190   18.4650 C.3   175  CYS175      0.0970
    113  SG       180.1250   42.7390   17.0300 S.3   175  CYS175     -0.0800
    114  N        179.9550   39.0570   20.1080 N.am  176  HIS176     -0.1975
    115  CA       180.0920   38.2100   21.2710 C.3   176  HIS176      0.1656
    116  C        179.9270   36.8450   20.6210 C.2   176  HIS176      0.2291
    117  O        178.7960   36.3720   20.4000 O.2   176  HIS176     -0.2864
    118  CB       179.0080   38.4870   22.3360 C.3   176  HIS176      0.0771
    119  CG       177.6320   38.7470   21.7880 C.ar  176  HIS176      0.0820
    120  ND1      176.5760   37.8820   21.9860 N.ar  176  HIS176     -0.2267
    121  CD2      177.1180   39.8190   21.1490 C.ar  176  HIS176      0.1154
    122  CE1      175.4700   38.4140   21.4980 C.ar  176  HIS176      0.1986
    123  NE2      175.7710   39.5890   20.9850 N.ar  176  HIS176     -0.2212
    124  N        183.0360   47.7110   20.6830 N.3   207  ASP207     -0.1239
    125  CA       182.8060   49.1510   20.5700 C.3   207  ASP207      0.1674
    126  C        182.5530   49.5520   22.0300 C.2   207  ASP207      0.2266
    127  O        181.4480   49.3650   22.5560 O.2   207  ASP207     -0.2867
    128  CB       181.5610   49.3770   19.6940 C.3   207  ASP207      0.1410
    129  CG       181.1420   50.8280   19.6170 C.2   207  ASP207      0.3668
    130  OD1      180.3960   51.1800   18.6730 O.co2 207  ASP207     -0.2456
    131  OD2      181.5380   51.6090   20.4970 O.co2 207  ASP207     -0.2456
    132  N        179.4240   52.2900   22.6310 N.3   210  LEU210     -0.1231
    133  CA       178.0440   51.8110   22.4550 C.3   210  LEU210      0.1693
    134  C        177.7440   50.3650   22.7290 C.2   210  LEU210      0.2592
    135  O        176.7300   50.0520   23.3510 O.2   210  LEU210     -0.2718
    136  CB       177.5800   52.1340   21.0250 C.3   210  LEU210      0.0284
    137  CG       177.3380   53.6110   20.7190 C.3   210  LEU210      0.0019
    138  CD1      176.9540   53.7530   19.2380 C.3   210  LEU210      0.0001
    139  CD2      176.2050   54.1620   21.6330 C.3   210  LEU210      0.0001
    140  N        178.6150   49.4690   22.2650 N.am  211  GLY211     -0.1957
    141  CA       178.3560   48.0570   22.4420 C.3   211  GLY211      0.1869
    142  C        178.5880   47.4280   23.8070 C.2   211  GLY211      0.2309
    143  O        177.6910   46.7760   24.3900 O.2   211  GLY211     -0.2863
    144  N        176.0120   47.3750   26.5080 N.3   214  PHE214     -0.1227
    145  CA       174.9430   46.4120   26.2290 C.3   214  PHE214      0.1736
    146  C        175.4210   44.9720   26.4640 C.2   214  PHE214      0.2595
    147  O        174.7440   44.1670   27.1200 O.2   214  PHE214     -0.2718
    148  CB       174.4770   46.5650   24.7760 C.3   214  PHE214      0.0547
    149  CG       173.3010   47.5060   24.6030 C.ar  214  PHE214     -0.0202
    150  CD1      173.4180   48.8550   24.9120 C.ar  214  PHE214     -0.0042
    151  CD2      172.0800   47.0350   24.1160 C.ar  214  PHE214     -0.0042
    152  CE1      172.3310   49.7430   24.7350 C.ar  214  PHE214     -0.0003
    153  CE2      170.9810   47.9150   23.9380 C.ar  214  PHE214     -0.0003
    154  CZ       171.1200   49.2630   24.2490 C.ar  214  PHE214     -0.0000
    155  N        176.5990   44.6400   25.9280 N.am  215  ASN215     -0.1974
    156  CA       177.1330   43.2910   26.0850 C.3   215  ASN215      0.1688
    157  C        177.2410   42.8900   27.5410 C.2   215  ASN215      0.2292
    158  O        176.8400   41.8040   27.9100 O.2   215  ASN215     -0.2864
    159  CB       178.5190   43.1810   25.4060 C.3   215  ASN215      0.1181
    160  CG       178.4230   43.3030   23.9160 C.2   215  ASN215      0.2629
    161  OD1      179.0340   44.1890   23.3050 O.2   215  ASN215     -0.2716
    162  ND2      177.6190   42.4310   23.3130 N.am  215  ASN215     -0.0877
    163  N        185.6330   54.3840   18.9620 N.3   247  TYR247     -0.1241
    164  CA       185.5150   55.0820   17.6840 C.3   247  TYR247      0.1605
    165  C        185.9410   56.5340   17.8020 C.2   247  TYR247      0.2264
    166  O        185.7660   57.1500   18.8570 O.2   247  TYR247     -0.2867
    167  CB       184.0950   54.9920   17.1440 C.3   247  TYR247      0.0534
    168  CG       183.8170   53.6680   16.4880 C.ar  247  TYR247     -0.0201
    169  CD1      183.3120   52.5870   17.2230 C.ar  247  TYR247     -0.0009
    170  CD2      184.0980   53.4770   15.1400 C.ar  247  TYR247     -0.0009
    171  CE1      183.0960   51.3590   16.6330 C.ar  247  TYR247      0.0417
    172  CE2      183.8890   52.2470   14.5340 C.ar  247  TYR247      0.0417
    173  CZ       183.3870   51.1890   15.2820 C.ar  247  TYR247      0.1957
    174  OH       183.1870   49.9750   14.6580 O.3   247  TYR247     -0.2866
    175  N        174.4290   59.9710   27.1770 N.3   299  ILE299     -0.1231
    176  CA       175.5340   60.5190   26.4100 C.3   299  ILE299      0.1692
    177  C        175.3280   60.0800   24.9750 C.2   299  ILE299      0.2592
    178  O        175.3630   58.9000   24.6830 O.2   299  ILE299     -0.2718
    179  CB       176.8750   59.9800   26.9300 C.3   299  ILE299      0.0266
    180  CG1      177.0880   60.4750   28.3630 C.3   299  ILE299      0.0019
    181  CG2      178.0130   60.4370   26.0310 C.3   299  ILE299      0.0020
    182  CD1      178.3550   60.0020   28.9950 C.3   299  ILE299      0.0001
    183  N        175.0850   61.0340   24.0860 N.am  300  ASP300     -0.1960
    184  CA       174.8500   60.7250   22.6920 C.3   300  ASP300      0.1840
    185  C        176.1080   60.2720   21.9560 C.2   300  ASP300      0.2621
    186  O        177.1390   60.9350   22.0130 O.2   300  ASP300     -0.2715
    187  CB       174.2620   61.9410   21.9720 C.3   300  ASP300      0.1450
    188  CG       172.9900   62.4490   22.6240 C.2   300  ASP300      0.3671
    189  OD1      172.1400   61.6280   23.0260 O.co2 300  ASP300     -0.2456
    190  OD2      172.8320   63.6800   22.7230 O.co2 300  ASP300     -0.2456
    191  N        175.9950   59.1480   21.2520 N.am  301  MET301     -0.1977
    192  CA       177.1020   58.5940   20.4750 C.3   301  MET301      0.1605
    193  C        176.5170   57.9550   19.2380 C.2   301  MET301      0.2287
    194  O        175.5590   57.1800   19.3190 O.2   301  MET301     -0.2864
    195  CB       177.8970   57.5640   21.3000 C.3   301  MET301      0.0413
    196  CG       178.8180   58.2050   22.3310 C.3   301  MET301      0.0598
    197  SD       179.8950   57.0160   23.2670 S.3   301  MET301     -0.1393
    198  CE       178.8660   56.6240   24.6170 C.3   301  MET301      0.0692
    199  N        176.3770   55.4870   16.0200 N.3   303  MET303     -0.1230
    200  CA       176.8560   54.1550   15.7020 C.3   303  MET303      0.1702
    201  C        177.3740   54.1280   14.2760 C.2   303  MET303      0.2593
    202  O        176.7280   54.6460   13.3740 O.2   303  MET303     -0.2718
    203  CB       175.7350   53.1210   15.8440 C.3   303  MET303      0.0401
    204  CG       176.2540   51.6950   15.7000 C.3   303  MET303      0.0596
    205  SD       175.0070   50.4750   15.3640 S.3   303  MET303     -0.1393
    206  CE       175.0970   50.3950   13.6150 C.3   303  MET303      0.0692
    207  N        178.5450   53.5350   14.0690 N.am  304  SER304     -0.1952
    208  CA       179.0930   53.4450   12.7220 C.3   304  SER304      0.1924
    209  C        178.6390   52.1270   12.1050 C.2   304  SER304      0.2314
    210  O        178.9740   51.0520   12.6270 O.2   304  SER304     -0.2863
    211  CB       180.6120   53.5130   12.7690 C.3   304  SER304      0.2116
    212  OG       181.0360   54.7480   13.3170 O.3   304  SER304     -0.2180
@<TRIPOS>BOND
     1     4     3    2
     2    15    14    2
     3     6     7    1
     4     6     5    1
     5     3     2    1
     6     3    12   am
     7     2     5    1
     8     2     1    1
     9    14    13    1
    10    95    94    2
    11     7     8    1
    12    10     9    1
    13    13    12    1
    14    13    16    1
    15    94    93    1
    16   100   101    1
    17     8     9    2
    18    93    92    1
    19    93    96    1
    20     9    11    1
    21    16    17    1
    22    16    18    1
    23    99    97   am
    24   101   102    1
    25   101   104    1
    26    96    97    1
    27   106   105    1
    28   102   103    2
    29    97    98    2
    30   104   105    1
    31   105   107    1
    32   209   210    2
    33   209   208    1
    34    81    80    2
    35   208   211    1
    36   208   207    1
    37   211   212    1
    38   202   201    2
    39    80    79    1
    40   206   205    1
    41   207   201   am
    42    90    88   ar
    43    90    91   ar
    44    88    85   ar
    45   201   200    1
    46   172   170   ar
    47   172   173   ar
    48   174   173    1
    49    79    82    1
    50    79    78    1
    51    82    83    1
    52   170   168   ar
    53   173   171   ar
    54    91    89   ar
    55   205   204    1
    56    85    83   ar
    57    85    87   ar
    58   204   203    1
    59   200   203    1
    60   200   199    1
    61    69    68    2
    62    83    84   ar
    63    78    72   am
    64    73    72    2
    65   168   167    1
    66   168   169   ar
    67    89    87   ar
    68    87    86   ar
    69    72    71    1
    70   171   169   ar
    71    68    67    1
    72    68    70   am
    73    67    66    1
    74   113   112    1
    75    84    86   ar
    76   167   164    1
    77   108   109    1
    78   164   165    1
    79   164   163    1
    80    71    70    1
    81    71    74    1
    82   165   166    2
    83   109   112    1
    84   109   110    1
    85   130   129   ar
    86    74    75    1
    87    74    76    1
    88    75    77    1
    89   138   137    1
    90   193   194    2
    91   193   192    1
    92   110   111    2
    93   110   114   am
    94   129   128    1
    95   129   131   ar
    96   128   125    1
    97   114   115    1
    98    65    63   ar
    99   117   116    2
   100   192   191    1
   101   192   195    1
   102   125   124    1
   103   125   126    1
   104   116   115    1
   105   137   136    1
   106   137   139    1
   107   123   121   ar
   108   123   122   ar
   109   136   133    1
   110   121   119   ar
   111   191   185   am
   112   115   118    1
   113   195   196    1
   114    62    63    1
   115    62    61    1
   116    63    64   ar
   117   122   120   ar
   118   119   120   ar
   119   119   118    1
   120   185   186    2
   121   185   184    1
   122   187   188    1
   123   187   184    1
   124    60    59    2
   125   126   127    2
   126    61    58    1
   127   140   141    1
   128   140   134   am
   129    58    59    1
   130    58    57    1
   131   196   197    1
   132   141   142    1
   133   133   132    1
   134   133   134    1
   135   188   190   ar
   136   188   189   ar
   137   184   183    1
   138   134   135    2
   139   197   198    1
   140   161   160    2
   141   162   160   am
   142    54    52   ar
   143    54    56   ar
   144   142   143    2
   145    52    51   ar
   146   160   159    1
   147   153   151   ar
   148   153   154   ar
   149   183   177   am
   150   151   149   ar
   151    56    55   ar
   152   154   152   ar
   153   149   148    1
   154   149   150   ar
   155   178   177    2
   156   152   150   ar
   157   148   145    1
   158   177   176    1
   159    51    50    1
   160    51    53   ar
   161   159   156    1
   162    55    53   ar
   163    50    47    1
   164   155   156    1
   165   155   146   am
   166   181   179    1
   167   156   157    1
   168    27    26    1
   169   145   146    1
   170   145   144    1
   171   176   179    1
   172   176   175    1
   173   146   147    2
   174   179   180    1
   175    49    48    2
   176    47    48    1
   177    47    46    1
   178    26    25    1
   179   157   158    2
   180    46    41   am
   181    25    24    1
   182    37    36    1
   183   180   182    1
   184    31    30    2
   185    44    43    1
   186    41    40    1
   187    41    42    2
   188    40    43    1
   189    40    39    1
   190    36    35    2
   191    36    38    1
   192    24    23    1
   193    35    34    1
   194    43    45    1
   195    30    39   am
   196    30    29    1
   197    23    20    1
   198    32    33    1
   199    32    29    1
   200    33    34    1
   201    28    29    1
   202    28    21   am
   203    20    21    1
   204    20    19    1
   205    21    22    2
