@<TRIPOS>MOLECULE
tmp/2aazH00.pdb
 158 152 0 0 0
SMALL
GASTEIGER

@<TRIPOS>ATOM
      1  N        186.5540   48.8460    9.1130 N.3    28  ARG28      -0.1231
      2  CA       185.4840   48.5380    8.1770 C.3    28  ARG28       0.1694
      3  C        184.4860   49.6860    7.9570 C.2    28  ARG28       0.2592
      4  O        184.0960   49.9580    6.8240 O.2    28  ARG28      -0.2718
      5  CB       184.7200   47.3030    8.6880 C.3    28  ARG28       0.0321
      6  CG       183.5130   46.8930    7.8260 C.3    28  ARG28       0.0489
      7  CD       182.7790   45.7260    8.4490 C.3    28  ARG28       0.2205
      8  NE       182.2710   46.0620    9.7860 N.pl3  28  ARG28      -0.0865
      9  CZ       181.1900   46.8140   10.0000 C.cat  28  ARG28       0.5346
     10  NH1      180.5090   47.3110    8.9700 N.pl3  28  ARG28       0.1354
     11  NH2      180.7740   47.0560   11.2420 N.pl3  28  ARG28       0.1354
     12  N        184.0790   50.3470    9.0410 N.am   29  THR29      -0.1953
     13  CA       183.0740   51.4220    8.9740 C.3    29  THR29       0.1897
     14  C        183.5490   52.6890    8.2860 C.2    29  THR29       0.2313
     15  O        182.7410   53.4360    7.7320 O.2    29  THR29      -0.2863
     16  CB       182.5890   51.8320   10.3640 C.3    29  THR29       0.1794
     17  OG1      183.6530   52.5230   11.0380 O.3    29  THR29      -0.2208
     18  CG2      182.1810   50.5960   11.1900 C.3    29  THR29       0.0378
     19  N        166.5230   42.7720   23.1540 N.3    67  GLU67      -0.1245
     20  CA       167.4780   42.1010   22.2920 C.3    67  GLU67       0.1567
     21  C        167.8000   40.7050   22.8070 C.2    67  GLU67       0.2260
     22  O        167.8850   39.7460   22.0250 O.2    67  GLU67      -0.2867
     23  CB       168.7860   42.9200   22.1700 C.3    67  GLU67       0.0388
     24  CG       169.8290   42.2090   21.3020 C.3    67  GLU67       0.1160
     25  CD       171.1960   42.8440   21.3680 C.2    67  GLU67       0.3649
     26  OE1      171.6090   43.2200   22.4900 O.co2  67  GLU67      -0.2457
     27  OE2      171.8500   42.9640   20.2990 O.co2  67  GLU67      -0.2457
     28  N        169.2820   47.4050   15.9250 N.3    89  TRP89      -0.1241
     29  CA       169.6870   46.6370   14.7470 C.3    89  TRP89       0.1605
     30  C        169.1380   47.2040   13.4290 C.2    89  TRP89       0.2264
     31  O        169.3100   46.5970   12.3620 O.2    89  TRP89      -0.2867
     32  CB       169.2680   45.1620   14.9110 C.3    89  TRP89       0.0550
     33  CG       170.2370   44.3490   15.7590 C.ar   89  TRP89       0.0003
     34  CD1      170.0500   43.9100   17.0380 C.ar   89  TRP89       0.0946
     35  CD2      171.5590   43.9610   15.3920 C.ar   89  TRP89       0.0152
     36  NE1      171.1790   43.2830   17.5000 N.ar   89  TRP89      -0.2442
     37  CE2      172.1260   43.3020   16.5090 C.ar   89  TRP89       0.0810
     38  CE3      172.3260   44.1140   14.2290 C.ar   89  TRP89       0.0012
     39  CZ2      173.4300   42.8000   16.5000 C.ar   89  TRP89       0.0191
     40  CZ3      173.6290   43.6110   14.2130 C.ar   89  TRP89       0.0001
     41  CH2      174.1670   42.9620   15.3450 C.ar   89  TRP89       0.0015
     42  N        173.1550   35.5830   15.7370 N.3   115  TYR115     -0.1241
     43  CA       173.0530   35.1150   17.1180 C.3   115  TYR115      0.1605
     44  C        171.9910   34.0870   17.4730 C.2   115  TYR115      0.2264
     45  O        172.2790   32.9120   17.6480 O.2   115  TYR115     -0.2867
     46  CB       172.8960   36.3170   18.0770 C.3   115  TYR115      0.0534
     47  CG       174.0260   37.3210   17.9990 C.ar  115  TYR115     -0.0201
     48  CD1      175.2970   36.9990   18.4520 C.ar  115  TYR115     -0.0009
     49  CD2      173.8230   38.5790   17.4460 C.ar  115  TYR115     -0.0009
     50  CE1      176.3490   37.9250   18.3590 C.ar  115  TYR115      0.0417
     51  CE2      174.8540   39.5000   17.3420 C.ar  115  TYR115      0.0417
     52  CZ       176.1200   39.1650   17.8080 C.ar  115  TYR115      0.1957
     53  OH       177.1380   40.0890   17.7530 O.3   115  TYR115     -0.2866
     54  N        176.0150   40.9090    9.7540 N.3   172  LEU172     -0.1231
     55  CA       177.2010   41.2480   10.5290 C.3   172  LEU172      0.1678
     56  C        177.6390   40.0030   11.2940 C.2   172  LEU172      0.2434
     57  O        176.8040   39.2750   11.8390 O.2   172  LEU172     -0.2733
     58  CB       176.8580   42.3810   11.5100 C.3   172  LEU172      0.0284
     59  CG       177.9260   43.3450   12.0310 C.3   172  LEU172      0.0019
     60  CD1      178.5230   44.1220   10.8770 C.3   172  LEU172      0.0001
     61  CD2      177.3020   44.3160   13.0410 C.3   172  LEU172      0.0001
     62  N        178.9470   39.7100   11.3090 N.am  173  PRO173     -0.2729
     63  CA       179.4220   38.5340   12.0440 C.3   173  PRO173      0.1401
     64  C        179.2790   38.7650   13.5570 C.2   173  PRO173      0.2269
     65  O        179.3970   39.8800   14.0460 O.2   173  PRO173     -0.2865
     66  CB       180.8980   38.4430   11.6420 C.3   173  PRO173      0.0296
     67  CG       180.9380   39.1310   10.3080 C.3   173  PRO173      0.0237
     68  CD       180.0400   40.3130   10.5270 C.3   173  PRO173      0.0939
     69  N        179.7180   39.4590   17.3570 N.3   175  CYS175     -0.1221
     70  CA       180.7420   40.2010   18.0970 C.3   175  CYS175      0.1808
     71  C        181.0110   39.3670   19.3550 C.2   175  CYS175      0.2601
     72  O        182.1570   39.0420   19.6410 O.2   175  CYS175     -0.2717
     73  CB       180.2610   41.6190   18.4650 C.3   175  CYS175      0.0970
     74  SG       180.1250   42.7390   17.0300 S.3   175  CYS175     -0.0800
     75  N        179.9550   39.0570   20.1080 N.am  176  HIS176     -0.1975
     76  CA       180.0920   38.2100   21.2710 C.3   176  HIS176      0.1656
     77  C        179.9270   36.8450   20.6210 C.2   176  HIS176      0.2291
     78  O        178.7960   36.3720   20.4000 O.2   176  HIS176     -0.2864
     79  CB       179.0080   38.4870   22.3360 C.3   176  HIS176      0.0771
     80  CG       177.6320   38.7470   21.7880 C.ar  176  HIS176      0.0820
     81  ND1      176.5760   37.8820   21.9860 N.ar  176  HIS176     -0.2267
     82  CD2      177.1180   39.8190   21.1490 C.ar  176  HIS176      0.1154
     83  CE1      175.4700   38.4140   21.4980 C.ar  176  HIS176      0.1986
     84  NE2      175.7710   39.5890   20.9850 N.ar  176  HIS176     -0.2212
     85  N        184.4730   38.4190   23.3980 N.3   203  GLN203     -0.1231
     86  CA       184.0030   39.3250   22.3630 C.3   203  GLN203      0.1698
     87  C        185.1870   39.6950   21.4700 C.2   203  GLN203      0.2592
     88  O        186.1310   40.3390   21.9340 O.2   203  GLN203     -0.2718
     89  CB       183.3980   40.5710   23.0270 C.3   203  GLN203      0.0381
     90  CG       182.5030   41.4220   22.1280 C.3   203  GLN203      0.0905
     91  CD       181.8150   42.5800   22.9080 C.2   203  GLN203      0.2608
     92  OE1      181.4640   42.4410   24.0930 O.2   203  GLN203     -0.2717
     93  NE2      181.6400   43.7040   22.2460 N.am  203  GLN203     -0.0878
     94  N        185.1270   39.2940   20.2010 N.am  204  ARG204     -0.1966
     95  CA       186.2160   39.5480   19.2290 C.3   204  ARG204      0.1729
     96  C        186.4260   41.0120   18.8720 C.2   204  ARG204      0.2616
     97  O        187.5560   41.4180   18.5690 O.2   204  ARG204     -0.2715
     98  CB       185.9370   38.7830   17.9230 C.3   204  ARG204      0.0348
     99  CG       184.7550   39.3900   17.1220 C.3   204  ARG204      0.0492
    100  CD       184.5320   38.7540   15.7450 C.3   204  ARG204      0.2205
    101  NE       183.3570   39.3630   15.1030 N.pl3 204  ARG204     -0.0865
    102  CZ       183.3090   40.5790   14.5410 C.cat 204  ARG204      0.5346
    103  NH1      184.3790   41.3750   14.4930 N.pl3 204  ARG204      0.1354
    104  NH2      182.1510   41.0310   14.0720 N.pl3 204  ARG204      0.1354
    105  N        185.3360   41.7920   18.8870 N.am  205  SER205     -0.1950
    106  CA       185.3680   43.2070   18.5120 C.3   205  SER205      0.1924
    107  C        184.4810   43.9560   19.5010 C.2   205  SER205      0.2314
    108  O        183.3190   43.5990   19.7050 O.2   205  SER205     -0.2863
    109  CB       184.8320   43.3800   17.0890 C.3   205  SER205      0.2116
    110  OG       184.9600   44.7140   16.6310 O.3   205  SER205     -0.2180
    111  N        183.0360   47.7110   20.6830 N.3   207  ASP207     -0.1239
    112  CA       182.8060   49.1510   20.5700 C.3   207  ASP207      0.1674
    113  C        182.5530   49.5520   22.0300 C.2   207  ASP207      0.2266
    114  O        181.4480   49.3650   22.5560 O.2   207  ASP207     -0.2867
    115  CB       181.5610   49.3770   19.6940 C.3   207  ASP207      0.1410
    116  CG       181.1420   50.8280   19.6170 C.2   207  ASP207      0.3668
    117  OD1      180.3960   51.1800   18.6730 O.co2 207  ASP207     -0.2456
    118  OD2      181.5380   51.6090   20.4970 O.co2 207  ASP207     -0.2456
    119  N        178.6150   49.4690   22.2650 N.3   211  GLY211     -0.1225
    120  CA       178.3560   48.0570   22.4420 C.3   211  GLY211      0.1811
    121  C        178.5880   47.4280   23.8070 C.2   211  GLY211      0.2280
    122  O        177.6910   46.7760   24.3900 O.2   211  GLY211     -0.2866
    123  N        176.5990   44.6400   25.9280 N.3   215  ASN215     -0.1240
    124  CA       177.1330   43.2910   26.0850 C.3   215  ASN215      0.1653
    125  C        177.2410   42.8900   27.5410 C.2   215  ASN215      0.2266
    126  O        176.8400   41.8040   27.9100 O.2   215  ASN215     -0.2867
    127  CB       178.5190   43.1810   25.4060 C.3   215  ASN215      0.1155
    128  CG       178.4230   43.3030   23.9160 C.2   215  ASN215      0.2627
    129  OD1      179.0340   44.1890   23.3050 O.2   215  ASN215     -0.2716
    130  ND2      177.6190   42.4310   23.3130 N.am  215  ASN215     -0.0877
    131  N        188.1600   48.7240   21.1030 N.3   245  HIS245     -0.1241
    132  CA       188.3390   50.0320   20.4990 C.3   245  HIS245      0.1621
    133  C        187.3220   51.1140   20.8780 C.2   245  HIS245      0.2264
    134  O        186.2110   50.8510   21.3710 O.2   245  HIS245     -0.2867
    135  CB       188.3360   49.8840   18.9640 C.3   245  HIS245      0.0745
    136  CG       187.1350   49.1510   18.4300 C.ar  245  HIS245      0.0817
    137  ND1      187.1000   47.7850   18.2810 N.ar  245  HIS245     -0.2268
    138  CD2      185.9040   49.5960   18.0720 C.ar  245  HIS245      0.1154
    139  CE1      185.9020   47.4190   17.8530 C.ar  245  HIS245      0.1986
    140  NE2      185.1570   48.5020   17.7180 N.ar  245  HIS245     -0.2212
    141  N        185.6330   54.3840   18.9620 N.3   247  TYR247     -0.1241
    142  CA       185.5150   55.0820   17.6840 C.3   247  TYR247      0.1605
    143  C        185.9410   56.5340   17.8020 C.2   247  TYR247      0.2264
    144  O        185.7660   57.1500   18.8570 O.2   247  TYR247     -0.2867
    145  CB       184.0950   54.9920   17.1440 C.3   247  TYR247      0.0534
    146  CG       183.8170   53.6680   16.4880 C.ar  247  TYR247     -0.0201
    147  CD1      183.3120   52.5870   17.2230 C.ar  247  TYR247     -0.0009
    148  CD2      184.0980   53.4770   15.1400 C.ar  247  TYR247     -0.0009
    149  CE1      183.0960   51.3590   16.6330 C.ar  247  TYR247      0.0417
    150  CE2      183.8890   52.2470   14.5340 C.ar  247  TYR247      0.0417
    151  CZ       183.3870   51.1890   15.2820 C.ar  247  TYR247      0.1957
    152  OH       183.1870   49.9750   14.6580 O.3   247  TYR247     -0.2866
    153  N        178.5450   53.5350   14.0690 N.3   304  SER304     -0.1217
    154  CA       179.0930   53.4450   12.7220 C.3   304  SER304      0.1889
    155  C        178.6390   52.1270   12.1050 C.2   304  SER304      0.2288
    156  O        178.9740   51.0520   12.6270 O.2   304  SER304     -0.2866
    157  CB       180.6120   53.5130   12.7690 C.3   304  SER304      0.2089
    158  OG       181.0360   54.7480   13.3170 O.3   304  SER304     -0.2183
@<TRIPOS>BOND
     1     4     3    2
     2    15    14    2
     3     6     7    1
     4     6     5    1
     5     3     2    1
     6     3    12   am
     7     2     5    1
     8     2     1    1
     9    14    13    1
    10     7     8    1
    11    10     9    1
    12    13    12    1
    13    13    16    1
    14    54    55    1
    15     8     9    2
    16     9    11    1
    17    67    68    1
    18    67    66    1
    19    16    17    1
    20    16    18    1
    21    68    62    1
    22    55    56    1
    23    55    58    1
    24    60    59    1
    25    56    62   am
    26    56    57    2
    27    62    63    1
    28    58    59    1
    29    66    63    1
    30    59    61    1
    31    63    64    1
    32   155   156    2
    33   155   154    1
    34    31    30    2
    35   154   157    1
    36   154   153    1
    37   157   158    1
    38    30    29    1
    39    64    65    2
    40   104   102    1
    41    40    38   ar
    42    40    41   ar
    43    38    35   ar
    44   103   102    1
    45   150   148   ar
    46   150   151   ar
    47   102   101    2
    48   152   151    1
    49    29    32    1
    50    29    28    1
    51    32    33    1
    52   101   100    1
    53   148   146   ar
    54   151   149   ar
    55    41    39   ar
    56    35    33   ar
    57    35    37   ar
    58    42    43    1
    59   100    99    1
    60    33    34   ar
    61   146   145    1
    62   146   147   ar
    63    39    37   ar
    64    37    36   ar
    65   110   109    1
    66   149   147   ar
    67    74    73    1
    68    34    36   ar
    69   109   106    1
    70    43    44    1
    71    43    46    1
    72    99    98    1
    73   145   142    1
    74    51    49   ar
    75    51    52   ar
    76    69    70    1
    77    49    47   ar
    78    44    45    2
    79   142   143    1
    80   142   141    1
    81   140   139   ar
    82   140   138   ar
    83    53    52    1
    84   143   144    2
    85    52    50   ar
    86   139   137   ar
    87    98    95    1
    88    47    46    1
    89    47    48   ar
    90   138   136   ar
    91    70    73    1
    92    70    71    1
    93   137   136   ar
    94    50    48   ar
    95   136   135    1
    96   106   105    1
    97   106   107    1
    98    97    96    2
    99   117   116   ar
   100    96   105   am
   101    96    95    1
   102   135   132    1
   103    95    94    1
   104    71    72    2
   105    71    75   am
   106   107   108    2
   107   116   115    1
   108   116   118   ar
   109   115   112    1
   110    75    76    1
   111    94    87   am
   112    27    25   ar
   113    78    77    2
   114   132   133    1
   115   132   131    1
   116   112   111    1
   117   112   113    1
   118    77    76    1
   119   133   134    2
   120    84    82   ar
   121    84    83   ar
   122    82    80   ar
   123    76    79    1
   124    24    25    1
   125    24    23    1
   126    25    26   ar
   127    87    88    2
   128    87    86    1
   129    83    81   ar
   130    80    81   ar
   131    80    79    1
   132    22    21    2
   133   113   114    2
   134    90    91    1
   135    90    89    1
   136    23    20    1
   137    93    91   am
   138   119   120    1
   139    20    21    1
   140    20    19    1
   141    86    89    1
   142    86    85    1
   143   120   121    1
   144    91    92    2
   145   129   128    2
   146   130   128   am
   147   121   122    2
   148   128   127    1
   149   127   124    1
   150   123   124    1
   151   124   125    1
   152   125   126    2
