@<TRIPOS>MOLECULE
tmp/2ab6D00.pdb
 179 177 0 0 0
SMALL
GASTEIGER

@<TRIPOS>ATOM
      1  N         12.1830  -17.5950   30.3330 N.3     6  TYR6       -0.1227
      2  CA        11.4590  -18.8550   30.1770 C.3     6  TYR6        0.1736
      3  C         10.4680  -18.7460   29.0350 C.2     6  TYR6        0.2595
      4  O         10.2150  -17.6460   28.5190 O.2     6  TYR6       -0.2718
      5  CB        10.6880  -19.2260   31.4620 C.3     6  TYR6        0.0548
      6  CG        10.1870  -20.6610   31.4950 C.ar    6  TYR6       -0.0200
      7  CD1       11.0740  -21.7350   31.3480 C.ar    6  TYR6       -0.0009
      8  CD2        8.8330  -20.9440   31.6390 C.ar    6  TYR6       -0.0009
      9  CE1       10.6280  -23.0500   31.3540 C.ar    6  TYR6        0.0417
     10  CE2        8.3700  -22.2630   31.6650 C.ar    6  TYR6        0.0417
     11  CZ         9.2800  -23.3110   31.5250 C.ar    6  TYR6        0.1957
     12  OH         8.8540  -24.6250   31.5320 O.3     6  TYR6       -0.2866
     13  N          9.9090  -19.8880   28.6420 N.am    7  TRP7       -0.1976
     14  CA         8.7890  -19.9170   27.7160 C.3     7  TRP7        0.1640
     15  C          7.6290  -19.1360   28.3040 C.2     7  TRP7        0.2290
     16  O          7.5560  -18.9490   29.5140 O.2     7  TRP7       -0.2864
     17  CB         8.3530  -21.3490   27.4380 C.3     7  TRP7        0.0576
     18  CG         9.3630  -22.1570   26.7180 C.ar    7  TRP7        0.0006
     19  CD1       10.0390  -23.2320   27.1990 C.ar    7  TRP7        0.0946
     20  CD2        9.8160  -21.9690   25.3690 C.ar    7  TRP7        0.0152
     21  NE1       10.8840  -23.7220   26.2470 N.ar    7  TRP7       -0.2442
     22  CE2       10.7680  -22.9690   25.1100 C.ar    7  TRP7        0.0810
     23  CE3        9.5040  -21.0590   24.3580 C.ar    7  TRP7        0.0012
     24  CZ2       11.4180  -23.0850   23.8840 C.ar    7  TRP7        0.0191
     25  CZ3       10.1530  -21.1820   23.1330 C.ar    7  TRP7        0.0001
     26  CH2       11.0990  -22.1860   22.9140 C.ar    7  TRP7        0.0015
     27  N          4.8560  -19.7280   29.3320 N.3     9  ILE9       -0.1245
     28  CA         3.9020  -20.6060   29.9960 C.3     9  ILE9        0.1561
     29  C          4.1290  -20.6330   31.5190 C.2     9  ILE9        0.2260
     30  O          5.0670  -20.0280   32.0360 O.2     9  ILE9       -0.2867
     31  CB         3.9750  -22.0300   29.4190 C.3     9  ILE9        0.0252
     32  CG1        5.3900  -22.5810   29.5780 C.3     9  ILE9        0.0019
     33  CG2        3.6000  -22.0230   27.9510 C.3     9  ILE9        0.0019
     34  CD1        5.4970  -24.0880   29.4900 C.3     9  ILE9        0.0001
     35  N          4.6630  -23.7950   33.4870 N.3    11  GLY11      -0.1210
     36  CA         5.8100  -24.6890   33.4840 C.3    11  GLY11       0.1956
     37  C          6.6130  -24.6330   34.7640 C.2    11  GLY11       0.2611
     38  O          6.0490  -24.6620   35.8500 O.2    11  GLY11      -0.2717
     39  N          7.9310  -24.5330   34.6250 N.am   12  LEU12      -0.1979
     40  CA         8.8620  -24.6590   35.7350 C.3    12  LEU12       0.1596
     41  C          9.2040  -23.2660   36.2870 C.2    12  LEU12       0.2287
     42  O         10.0240  -23.1280   37.2110 O.2    12  LEU12      -0.2864
     43  CB        10.1480  -25.3240   35.2480 C.3    12  LEU12       0.0297
     44  CG        10.2190  -26.8190   34.9380 C.3    12  LEU12       0.0022
     45  CD1       11.3710  -27.0950   33.9990 C.3    12  LEU12       0.0001
     46  CD2       10.3830  -27.6210   36.2140 C.3    12  LEU12       0.0001
     47  N         11.1810  -23.0480   17.6550 N.3    42  ARG42      -0.1245
     48  CA        11.7980  -22.7130   18.9330 C.3    42  ARG42       0.1563
     49  C         12.8020  -21.5930   18.7690 C.2    42  ARG42       0.2260
     50  O         13.5470  -21.3080   19.6910 O.2    42  ARG42      -0.2867
     51  CB        12.5200  -23.9330   19.5090 C.3    42  ARG42       0.0307
     52  CG        11.6480  -24.9010   20.2670 C.3    42  ARG42       0.0489
     53  CD        12.3920  -26.2060   20.5480 C.3    42  ARG42       0.2205
     54  NE        12.3440  -26.5220   21.9510 N.pl3  42  ARG42      -0.0865
     55  CZ        11.7910  -27.5480   22.5970 C.cat  42  ARG42       0.5346
     56  NH1       11.9170  -27.5150   23.9120 N.pl3  42  ARG42       0.1354
     57  NH2       11.1650  -28.5770   22.0260 N.pl3  42  ARG42       0.1354
     58  N         14.2140  -18.7130   21.1440 N.3    45  TRP45      -0.1227
     59  CA        15.1670  -19.2100   22.1230 C.3    45  TRP45       0.1737
     60  C         16.4540  -19.6340   21.4620 C.2    45  TRP45       0.2595
     61  O         17.5340  -19.2150   21.8790 O.2    45  TRP45      -0.2718
     62  CB        14.5450  -20.3710   22.8980 C.3    45  TRP45       0.0564
     63  CG        15.4640  -21.2340   23.7240 C.ar   45  TRP45       0.0003
     64  CD1       15.5140  -22.6070   23.7230 C.ar   45  TRP45       0.0946
     65  CD2       16.4210  -20.8070   24.7080 C.ar   45  TRP45       0.0152
     66  NE1       16.4500  -23.0550   24.6350 N.ar   45  TRP45      -0.2442
     67  CE2       17.0190  -21.9700   25.2490 C.ar   45  TRP45       0.0810
     68  CE3       16.8440  -19.5560   25.1750 C.ar   45  TRP45       0.0012
     69  CZ2       18.0110  -21.9130   26.2200 C.ar   45  TRP45       0.0191
     70  CZ3       17.8360  -19.5090   26.1470 C.ar   45  TRP45       0.0001
     71  CH2       18.4080  -20.6780   26.6500 C.ar   45  TRP45       0.0015
     72  N         16.3380  -20.4430   20.4130 N.am   46  LEU46      -0.1980
     73  CA        17.4930  -21.0760   19.8100 C.3    46  LEU46       0.1596
     74  C         18.5300  -20.0710   19.3440 C.2    46  LEU46       0.2287
     75  O         19.7250  -20.3170   19.5300 O.2    46  LEU46      -0.2864
     76  CB        17.0850  -22.0330   18.6980 C.3    46  LEU46       0.0297
     77  CG        16.5000  -23.3480   19.2180 C.3    46  LEU46       0.0022
     78  CD1       16.3910  -24.3520   18.0900 C.3    46  LEU46       0.0001
     79  CD2       17.3210  -23.9330   20.3520 C.3    46  LEU46       0.0001
     80  N         20.2420  -18.6350   22.4950 N.3    49  LYS49      -0.1245
     81  CA        20.5090  -19.6880   23.4840 C.3    49  LYS49       0.1561
     82  C         21.9510  -19.7570   23.9210 C.2    49  LYS49       0.2260
     83  O         22.2310  -19.9240   25.1050 O.2    49  LYS49      -0.2867
     84  CB        20.0850  -21.0480   22.9490 C.3    49  LYS49       0.0271
     85  CG        20.6530  -22.2420   23.6840 C.3    49  LYS49       0.0035
     86  CD        19.8570  -23.5120   23.3510 C.3    49  LYS49       0.0206
     87  CE        20.5670  -24.7650   23.8810 C.3    49  LYS49       0.1093
     88  NZ        19.6680  -25.9190   24.0370 N.3    49  LYS49      -0.1314
     89  N         23.2550  -23.6750   28.9280 N.3    57  PRO57      -0.2102
     90  CA        22.1020  -22.9220   28.4620 C.3    57  PRO57       0.1504
     91  C         20.8170  -23.7330   28.5660 C.2    57  PRO57       0.2576
     92  O         20.7970  -24.9140   28.1730 O.2    57  PRO57      -0.2718
     93  CB        22.4570  -22.6520   27.0030 C.3    57  PRO57       0.0282
     94  CG        23.9060  -22.5340   27.0250 C.3    57  PRO57       0.0208
     95  CD        24.3750  -23.5740   27.9780 C.3    57  PRO57       0.0893
     96  N         19.7680  -23.1050   29.1060 N.am   58  ASN58      -0.1961
     97  CA        18.5440  -23.7990   29.4730 C.3    58  ASN58       0.1819
     98  C         17.4390  -22.8290   29.8380 C.2    58  ASN58       0.2621
     99  O         17.6980  -21.6720   30.1650 O.2    58  ASN58      -0.2715
    100  CB        18.8030  -24.7260   30.6520 C.3    58  ASN58       0.1195
    101  CG        18.0470  -26.0140   30.5480 C.2    58  ASN58       0.2630
    102  OD1       17.1300  -26.1370   29.7380 O.2    58  ASN58      -0.2716
    103  ND2       18.4230  -26.9920   31.3700 N.am   58  ASN58      -0.0877
    104  N         16.1970  -23.3070   29.7760 N.am   59  LEU59      -0.1964
    105  CA        15.0370  -22.5580   30.2560 C.3    59  LEU59       0.1713
    106  C         14.3710  -23.3230   31.4050 C.2    59  LEU59       0.2458
    107  O         13.9850  -24.4740   31.2410 O.2    59  LEU59      -0.2730
    108  CB        14.0350  -22.3350   29.1160 C.3    59  LEU59       0.0310
    109  CG        14.5400  -21.5150   27.9330 C.3    59  LEU59       0.0022
    110  CD1       13.6290  -21.6590   26.7450 C.3    59  LEU59       0.0001
    111  CD2       14.7540  -20.0640   28.2410 C.3    59  LEU59       0.0001
    112  N         14.2110  -22.6830   32.5690 N.am   60  PRO60      -0.2727
    113  CA        14.3540  -21.2660   32.8270 C.3    60  PRO60       0.1402
    114  C         15.7860  -20.8440   33.1060 C.2    60  PRO60       0.2269
    115  O         16.6280  -21.6790   33.4400 O.2    60  PRO60      -0.2865
    116  CB        13.5080  -21.0780   34.0860 C.3    60  PRO60       0.0296
    117  CG        13.6750  -22.3400   34.8240 C.3    60  PRO60       0.0237
    118  CD        13.8090  -23.4140   33.7870 C.3    60  PRO60       0.0939
    119  N         18.7990  -24.3210   35.5200 N.3    71  GLN71      -0.1231
    120  CA        18.1980  -25.3060   36.4350 C.3    71  GLN71       0.1698
    121  C         17.2780  -24.7070   37.4770 C.2    71  GLN71       0.2593
    122  O         17.7080  -23.9200   38.3260 O.2    71  GLN71      -0.2718
    123  CB        19.2320  -26.2200   37.1040 C.3    71  GLN71       0.0381
    124  CG        19.9720  -27.1250   36.1510 C.3    71  GLN71       0.0905
    125  CD        19.0750  -28.1930   35.5650 C.2    71  GLN71       0.2608
    126  OE1       18.0340  -28.5010   36.1300 O.2    71  GLN71      -0.2717
    127  NE2       19.4620  -28.7550   34.4250 N.am   71  GLN71      -0.0878
    128  N         16.0110  -25.1040   37.4300 N.am   72  SER72      -0.1938
    129  CA        14.9810  -24.3710   38.1240 C.3    72  SER72       0.2055
    130  C         15.1520  -24.4090   39.6440 C.2    72  SER72       0.2643
    131  O         14.8970  -23.4120   40.3250 O.2    72  SER72      -0.2714
    132  CB        13.6020  -24.8420   37.6800 C.3    72  SER72       0.2130
    133  OG        13.2640  -26.0750   38.2660 O.3    72  SER72      -0.2179
    134  N         15.5940  -25.5580   40.1700 N.am   73  ASN73      -0.1971
    135  CA        15.8420  -25.7150   41.6240 C.3    73  ASN73       0.1688
    136  C         17.0300  -24.9040   42.0600 C.2    73  ASN73       0.2292
    137  O         17.0350  -24.3800   43.1700 O.2    73  ASN73      -0.2864
    138  CB        16.0980  -27.1690   41.9940 C.3    73  ASN73       0.1181
    139  CG        14.8980  -28.0240   41.8200 C.2    73  ASN73       0.2629
    140  OD1       13.7760  -27.5290   41.6780 O.2    73  ASN73      -0.2716
    141  ND2       15.1140  -29.3270   41.8230 N.am   73  ASN73      -0.0877
    142  N          9.7780  -32.8790   42.5020 N.3   104  MET104     -0.1245
    143  CA        10.2530  -32.9310   41.1350 C.3   104  MET104      0.1570
    144  C          9.8640  -34.2540   40.4190 C.2   104  MET104      0.2261
    145  O          9.4480  -34.2330   39.2470 O.2   104  MET104     -0.2867
    146  CB        11.7520  -32.6800   41.0750 C.3   104  MET104      0.0387
    147  CG        12.3200  -32.6220   39.6710 C.3   104  MET104      0.0595
    148  SD        11.6330  -31.3020   38.6830 S.3   104  MET104     -0.1393
    149  CE        12.6250  -29.9020   39.1900 C.3   104  MET104      0.0692
    150  N          2.2200  -35.1410   28.0940 N.3   115  TYR115     -0.1241
    151  CA         2.9380  -35.0720   26.8350 C.3   115  TYR115      0.1605
    152  C          2.8300  -36.3650   26.0700 C.2   115  TYR115      0.2264
    153  O          3.2210  -36.4110   24.9220 O.2   115  TYR115     -0.2867
    154  CB         4.4150  -34.7420   27.0780 C.3   115  TYR115      0.0534
    155  CG         4.6650  -33.2620   27.2690 C.ar  115  TYR115     -0.0201
    156  CD1        4.4520  -32.6530   28.5040 C.ar  115  TYR115     -0.0009
    157  CD2        5.0720  -32.4650   26.2010 C.ar  115  TYR115     -0.0009
    158  CE1        4.6710  -31.2890   28.6740 C.ar  115  TYR115      0.0417
    159  CE2        5.2940  -31.1020   26.3580 C.ar  115  TYR115      0.0417
    160  CZ         5.0900  -30.5170   27.5960 C.ar  115  TYR115      0.1957
    161  OH         5.2930  -29.1680   27.7750 O.3   115  TYR115     -0.2866
    162  N          1.5760  -26.2770   30.3120 N.3   208  PHE208     -0.1227
    163  CA         2.6810  -26.8830   29.5910 C.3   208  PHE208      0.1736
    164  C          2.9290  -26.1630   28.2750 C.2   208  PHE208      0.2596
    165  O          2.2590  -25.1930   27.9730 O.2   208  PHE208     -0.2718
    166  CB         2.4030  -28.3580   29.3410 C.3   208  PHE208      0.0547
    167  CG         2.2870  -29.1850   30.5920 C.ar  208  PHE208     -0.0202
    168  CD1        3.3770  -29.3860   31.4130 C.ar  208  PHE208     -0.0042
    169  CD2        1.0870  -29.7970   30.9240 C.ar  208  PHE208     -0.0042
    170  CE1        3.2620  -30.1760   32.5490 C.ar  208  PHE208     -0.0003
    171  CE2        0.9710  -30.5750   32.0580 C.ar  208  PHE208     -0.0003
    172  CZ         2.0530  -30.7650   32.8690 C.ar  208  PHE208     -0.0000
    173  N          3.9000  -26.6380   27.4960 N.am  209  THR209     -0.1953
    174  CA         4.1880  -26.0540   26.1770 C.3   209  THR209      0.1897
    175  C          3.1790  -26.5090   25.1260 C.2   209  THR209      0.2313
    176  O          2.3960  -27.4310   25.3550 O.2   209  THR209     -0.2863
    177  CB         5.5910  -26.4130   25.6730 C.3   209  THR209      0.1794
    178  OG1        5.6020  -27.7710   25.2100 O.3   209  THR209     -0.2208
    179  CG2        6.6320  -26.2350   26.7630 C.3   209  THR209      0.0378
@<TRIPOS>BOND
     1    47    48    1
     2    78    77    1
     3    76    77    1
     4    76    73    1
     5    49    48    1
     6    49    50    2
     7    48    51    1
     8    77    79    1
     9    74    75    2
    10    74    73    1
    11    51    52    1
    12    73    72    1
    13    52    53    1
    14    72    60   am
    15    53    54    1
    16    58    59    1
    17    60    61    2
    18    60    59    1
    19    54    55    2
    20    57    55    1
    21    59    62    1
    22    80    81    1
    23    55    56    1
    24    62    63    1
    25    26    25   ar
    26    26    24   ar
    27    84    81    1
    28    84    85    1
    29    25    23   ar
    30    86    85    1
    31    86    87    1
    32    81    82    1
    33    64    63   ar
    34    64    66   ar
    35    63    65   ar
    36    87    88    1
    37    24    22   ar
    38    82    83    2
    39    23    20   ar
    40    66    67   ar
    41    65    68   ar
    42    65    67   ar
    43   153   152    2
    44    22    20   ar
    45    22    21   ar
    46   175   176    2
    47   175   174    1
    48    68    70   ar
    49   178   177    1
    50    67    69   ar
    51    20    18   ar
    52   177   174    1
    53   177   179    1
    54   152   151    1
    55    70    71   ar
    56   174   173    1
    57   157   159   ar
    58   157   155   ar
    59    69    71   ar
    60    21    19   ar
    61   159   160   ar
    62    18    19   ar
    63    18    17    1
    64   110   109    1
    65   151   154    1
    66   151   150    1
    67    93    94    1
    68    93    90    1
    69    94    95    1
    70   154   155    1
    71   155   156   ar
    72    17    14    1
    73   173   164   am
    74   160   161    1
    75   160   158   ar
    76    14    15    1
    77    14    13    1
    78   109   111    1
    79   109   108    1
    80    33    31    1
    81   165   164    2
    82    95    89    1
    83    92    91    2
    84   164   163    1
    85    15    16    2
    86    90    91    1
    87    90    89    1
    88   156   158   ar
    89     4     3    2
    90    91    96   am
    91    13     3   am
    92     3     2    1
    93    96    97    1
    94   108   105    1
    95    27    28    1
    96   166   163    1
    97   166   167    1
    98    31    32    1
    99    31    28    1
   100    97    98    1
   101    97   100    1
   102    34    32    1
   103   163   162    1
   104   102   101    2
   105   104    98   am
   106   104   105    1
   107    98    99    2
   108    28    29    1
   109     2     1    1
   110     2     5    1
   111   105   106    1
   112   101   100    1
   113   101   103   am
   114   167   169   ar
   115   167   168   ar
   116   169   171   ar
   117   107   106    2
   118     7     9   ar
   119     7     6   ar
   120     9    11   ar
   121   106   112   am
   122   168   170   ar
   123     5     6    1
   124     6     8   ar
   125    29    30    2
   126    11    12    1
   127    11    10   ar
   128     8    10   ar
   129   171   172   ar
   130   170   172   ar
   131   112   113    1
   132   112   118    1
   133   113   114    1
   134   113   116    1
   135   114   115    2
   136    36    35    1
   137    36    37    1
   138   118   117    1
   139    45    44    1
   140   116   117    1
   141   127   125   am
   142    39    37   am
   143    39    40    1
   144    37    38    2
   145    44    43    1
   146    44    46    1
   147    43    40    1
   148   119   120    1
   149   125   126    2
   150   125   124    1
   151    40    41    1
   152   124   123    1
   153    41    42    2
   154   120   123    1
   155   120   121    1
   156   128   121   am
   157   128   129    1
   158   121   122    2
   159   132   129    1
   160   132   133    1
   161   129   130    1
   162   148   149    1
   163   148   147    1
   164   145   144    2
   165   130   134   am
   166   130   131    2
   167   147   146    1
   168   134   135    1
   169   144   143    1
   170   146   143    1
   171   143   142    1
   172   135   138    1
   173   135   136    1
   174   140   139    2
   175   139   141   am
   176   139   138    1
   177   136   137    2
