@<TRIPOS>MOLECULE
tmp/2ab8A00.pdb
 157 142 0 0 0
SMALL
GASTEIGER

@<TRIPOS>ATOM
      1  N         -3.8750  -47.2430 -104.6410 N.3    11  ASN11      -0.1240
      2  CA        -3.5510  -46.1270 -103.7570 C.3    11  ASN11       0.1653
      3  C         -4.3890  -46.3600 -102.5070 C.2    11  ASN11       0.2266
      4  O         -5.5970  -46.1460 -102.5200 O.2    11  ASN11      -0.2867
      5  CB        -3.9470  -44.7870 -104.3900 C.3    11  ASN11       0.1155
      6  CG        -3.1770  -44.4880 -105.6560 C.2    11  ASN11       0.2627
      7  OD1       -1.9740  -44.7370 -105.7340 O.2    11  ASN11      -0.2716
      8  ND2       -3.8630  -43.9310 -106.6520 N.am   11  ASN11      -0.0877
      9  N         -6.1780  -45.5900  -99.3130 N.3    13  ILE13      -0.1245
     10  CA        -6.7040  -44.3600  -98.7450 C.3    13  ILE13       0.1561
     11  C         -7.6490  -44.6140  -97.5770 C.2    13  ILE13       0.2260
     12  O         -8.4410  -45.5510  -97.6050 O.2    13  ILE13      -0.2867
     13  CB        -7.4820  -43.5710  -99.8270 C.3    13  ILE13       0.0252
     14  CG1       -6.5250  -43.1530 -100.9450 C.3    13  ILE13       0.0019
     15  CG2       -8.1730  -42.3600  -99.2100 C.3    13  ILE13       0.0019
     16  CD1       -7.2070  -42.5790 -102.1650 C.3    13  ILE13       0.0001
     17  N        -10.8050  -43.4270  -95.7120 N.3    15  ASP15      -0.1239
     18  CA       -11.9620  -42.5680  -95.9040 C.3    15  ASP15       0.1674
     19  C        -12.4490  -42.0460  -94.5600 C.2    15  ASP15       0.2266
     20  O        -12.5970  -42.8090  -93.6030 O.2    15  ASP15      -0.2867
     21  CB       -13.1130  -43.3240  -96.5740 C.3    15  ASP15       0.1410
     22  CG       -12.9050  -43.5150  -98.0570 C.2    15  ASP15       0.3668
     23  OD1      -11.9630  -42.9120  -98.6110 O.co2  15  ASP15      -0.2456
     24  OD2      -13.6970  -44.2620  -98.6680 O.co2  15  ASP15      -0.2456
     25  N        -16.0210  -34.9790 -106.8800 N.3    35  ALA35      -0.1245
     26  CA       -14.9330  -35.7460 -106.2830 C.3    35  ALA35       0.1562
     27  C        -13.6540  -35.1340 -106.8360 C.2    35  ALA35       0.2260
     28  O        -13.4150  -35.1650 -108.0450 O.2    35  ALA35      -0.2867
     29  CB       -15.0340  -37.2090 -106.6820 C.3    35  ALA35       0.0290
     30  N         -9.2540  -33.6740 -105.9630 N.3    37  LEU37      -0.1245
     31  CA        -8.0060  -33.7900 -105.2270 C.3    37  LEU37       0.1561
     32  C         -7.8400  -32.4640 -104.4970 C.2    37  LEU37       0.2260
     33  O         -8.0020  -31.3990 -105.0910 O.2    37  LEU37      -0.2867
     34  CB        -6.8340  -34.0200 -106.1830 C.3    37  LEU37       0.0270
     35  CG        -6.8350  -35.3570 -106.9300 C.3    37  LEU37       0.0019
     36  CD1       -5.6390  -35.4240 -107.8690 C.3    37  LEU37       0.0001
     37  CD2       -6.7800  -36.5010 -105.9270 C.3    37  LEU37       0.0001
     38  N        -10.1220  -46.1850 -101.0970 N.3    60  GLY60      -0.1210
     39  CA        -9.2320  -46.3720 -102.2280 C.3    60  GLY60       0.1956
     40  C         -9.9500  -47.2890 -103.1990 C.2    60  GLY60       0.2613
     41  O        -10.4600  -48.3290 -102.8000 O.2    60  GLY60      -0.2717
     42  N         -9.9920  -46.9140 -104.4720 N.am   61  SER61      -0.1938
     43  CA       -10.6910  -47.7170 -105.4730 C.3    61  SER61       0.2055
     44  C        -10.2810  -49.1950 -105.5190 C.2    61  SER61       0.2642
     45  O        -11.1080  -50.0850 -105.3000 O.2    61  SER61      -0.2714
     46  CB       -10.5080  -47.0830 -106.8570 C.3    61  SER61       0.2130
     47  OG       -11.1980  -47.8160 -107.8570 O.3    61  SER61      -0.2179
     48  N         -9.0150  -49.4700 -105.8190 N.am   62  ALA62      -0.1977
     49  CA        -8.5640  -50.8580 -105.8950 C.3    62  ALA62       0.1597
     50  C         -8.7410  -51.6070 -104.5770 C.2    62  ALA62       0.2287
     51  O         -9.1140  -52.7830 -104.5720 O.2    62  ALA62      -0.2864
     52  CB        -7.0970  -50.9200 -106.3360 C.3    62  ALA62       0.0319
     53  N        -10.9790  -51.0930 -102.3160 N.3    64  ASN64      -0.1240
     54  CA       -12.4070  -51.3790 -102.1800 C.3    64  ASN64       0.1653
     55  C        -12.7520  -52.6360 -102.9890 C.2    64  ASN64       0.2266
     56  O        -13.5000  -53.4930 -102.5250 O.2    64  ASN64      -0.2867
     57  CB       -13.2460  -50.2050 -102.7010 C.3    64  ASN64       0.1155
     58  CG       -13.3330  -49.0520 -101.7180 C.2    64  ASN64       0.2627
     59  OD1      -13.7530  -47.9530 -102.0790 O.2    64  ASN64      -0.2716
     60  ND2      -12.9530  -49.2980 -100.4690 N.am   64  ASN64      -0.0877
     61  N         -9.2490  -39.4440  -97.7490 N.3   118  CYS118     -0.1235
     62  CA       -10.3420  -38.8900  -98.5260 C.3   118  CYS118      0.1677
     63  C        -11.4690  -38.4290  -97.6220 C.2   118  CYS118      0.2270
     64  O        -12.0110  -39.2120  -96.8370 O.2   118  CYS118     -0.2867
     65  CB       -10.8880  -39.9230  -99.5060 C.3   118  CYS118      0.0956
     66  SG       -12.3630  -39.3630 -100.3820 S.3   118  CYS118     -0.0801
     67  N        -16.4680  -35.5840 -102.2380 N.3   129  LEU129     -0.1245
     68  CA       -15.1800  -36.1660 -101.8780 C.3   129  LEU129      0.1561
     69  C        -13.9780  -35.2870 -102.1910 C.2   129  LEU129      0.2260
     70  O        -13.9010  -34.6670 -103.2520 O.2   129  LEU129     -0.2867
     71  CB       -15.0070  -37.5210 -102.5700 C.3   129  LEU129      0.0270
     72  CG       -15.8570  -38.6860 -102.0510 C.3   129  LEU129      0.0019
     73  CD1      -17.3370  -38.3690 -102.1920 C.3   129  LEU129      0.0001
     74  CD2      -15.5030  -39.9460 -102.8260 C.3   129  LEU129      0.0001
     75  N         -9.8920  -35.8280 -101.9090 N.3   131  THR131     -0.1218
     76  CA        -8.7910  -36.7400 -101.6510 C.3   131  THR131      0.1862
     77  C         -7.3950  -36.1390 -101.6980 C.2   131  THR131      0.2287
     78  O         -7.0970  -35.2920 -102.5410 O.2   131  THR131     -0.2866
     79  CB        -8.8390  -37.9040 -102.6620 C.3   131  THR131      0.1770
     80  OG1      -10.1050  -38.5670 -102.5600 O.3   131  THR131     -0.2211
     81  CG2       -7.7160  -38.8940 -102.4040 C.3   131  THR131      0.0375
     82  N         -3.6890  -37.7220 -101.8920 N.3   133  LEU133     -0.1245
     83  CA        -2.9250  -38.9540 -102.0640 C.3   133  LEU133      0.1561
     84  C         -1.7220  -39.1380 -101.1500 C.2   133  LEU133      0.2260
     85  O         -1.4510  -40.2510 -100.6970 O.2   133  LEU133     -0.2867
     86  CB        -2.4910  -39.0820 -103.5260 C.3   133  LEU133      0.0270
     87  CG        -3.6520  -39.3350 -104.4920 C.3   133  LEU133      0.0019
     88  CD1       -3.1950  -39.1100 -105.9220 C.3   133  LEU133      0.0001
     89  CD2       -4.1620  -40.7670 -104.3070 C.3   133  LEU133      0.0001
     90  N         -5.7310  -50.2020 -111.0260 N.3   158  THR158     -0.1218
     91  CA        -6.5870  -49.0970 -111.4250 C.3   158  THR158      0.1862
     92  C         -5.6810  -48.1240 -112.1770 C.2   158  THR158      0.2287
     93  O         -4.4760  -48.0710 -111.9250 O.2   158  THR158     -0.2866
     94  CB        -7.1380  -48.3610 -110.2030 C.3   158  THR158      0.1770
     95  OG1       -6.0540  -48.0810 -109.3070 O.3   158  THR158     -0.2211
     96  CG2       -8.1970  -49.2050 -109.4840 C.3   158  THR158      0.0375
     97  N         -5.6460  -45.2980 -111.6570 N.3   160  TYR160     -0.1241
     98  CA        -5.2300  -44.3800 -110.6010 C.3   160  TYR160      0.1605
     99  C         -3.7870  -44.6520 -110.1660 C.2   160  TYR160      0.2264
    100  O         -3.1010  -43.7440 -109.6940 O.2   160  TYR160     -0.2867
    101  CB        -6.1450  -44.5170 -109.3850 C.3   160  TYR160      0.0534
    102  CG        -7.5080  -43.8710 -109.5240 C.ar  160  TYR160     -0.0201
    103  CD1       -8.6370  -44.4810 -108.9780 C.ar  160  TYR160     -0.0009
    104  CD2       -7.6590  -42.6160 -110.1170 C.ar  160  TYR160     -0.0009
    105  CE1       -9.8790  -43.8590 -109.0070 C.ar  160  TYR160      0.0417
    106  CE2       -8.9070  -41.9800 -110.1510 C.ar  160  TYR160      0.0417
    107  CZ       -10.0090  -42.6130 -109.5890 C.ar  160  TYR160      0.1957
    108  OH       -11.2450  -42.0020 -109.6000 O.3   160  TYR160     -0.2866
    109  N         -0.6460  -42.6250 -111.3700 N.3   163  THR163     -0.1218
    110  CA        -0.2930  -41.3340 -110.7810 C.3   163  THR163      0.1862
    111  C          0.9280  -41.4040 -109.8660 C.2   163  THR163      0.2287
    112  O          1.4860  -40.3710 -109.5100 O.2   163  THR163     -0.2866
    113  CB        -1.4740  -40.7070 -110.0010 C.3   163  THR163      0.1770
    114  OG1       -1.7770  -41.5050 -108.8530 O.3   163  THR163     -0.2211
    115  CG2       -2.7050  -40.5990 -110.8970 C.3   163  THR163      0.0375
    116  N         -9.4470  -38.1890 -116.6050 N.3   192  PHE192     -0.1241
    117  CA        -8.1160  -37.5950 -116.6660 C.3   192  PHE192      0.1605
    118  C         -6.9800  -38.6080 -116.8190 C.2   192  PHE192      0.2264
    119  O         -5.9330  -38.2810 -117.3730 O.2   192  PHE192     -0.2867
    120  CB        -7.8730  -36.6770 -115.4570 C.3   192  PHE192      0.0534
    121  CG        -7.4980  -37.3960 -114.1880 C.ar  192  PHE192     -0.0203
    122  CD1       -6.1680  -37.6980 -113.9120 C.ar  192  PHE192     -0.0042
    123  CD2       -8.4700  -37.7470 -113.2580 C.ar  192  PHE192     -0.0042
    124  CE1       -5.8110  -38.3380 -112.7260 C.ar  192  PHE192     -0.0003
    125  CE2       -8.1250  -38.3870 -112.0700 C.ar  192  PHE192     -0.0003
    126  CZ        -6.7900  -38.6830 -111.8040 C.ar  192  PHE192     -0.0000
    127  N        -21.5570  -43.7740 -105.3220 N.3   305  ASN305     -0.1225
    128  CA       -20.1090  -43.7740 -105.1600 C.3   305  ASN305      0.1785
    129  C        -19.6800  -45.1650 -104.7110 C.2   305  ASN305      0.2597
    130  O        -20.2740  -45.7410 -103.7970 O.2   305  ASN305     -0.2718
    131  CB       -19.6720  -42.7460 -104.1090 C.3   305  ASN305      0.1169
    132  CG       -19.7920  -41.3170 -104.6010 C.2   305  ASN305      0.2627
    133  OD1      -19.1730  -40.9360 -105.5950 O.2   305  ASN305     -0.2716
    134  ND2      -20.5860  -40.5160 -103.9020 N.am  305  ASN305     -0.0877
    135  N        -18.6520  -45.7030 -105.3600 N.am  306  GLY306     -0.1957
    136  CA       -18.1670  -47.0230 -105.0000 C.3   306  GLY306      0.1869
    137  C        -18.8430  -48.1450 -105.7660 C.2   306  GLY306      0.2309
    138  O        -18.4620  -49.3070 -105.6330 O.2   306  GLY306     -0.2863
    139  N        -16.3540  -49.8030 -108.1430 N.3   309  ASP309     -0.1239
    140  CA       -15.3610  -50.6010 -107.4380 C.3   309  ASP309      0.1674
    141  C        -15.9650  -51.9270 -107.0000 C.2   309  ASP309      0.2266
    142  O        -15.3100  -52.9650 -107.0670 O.2   309  ASP309     -0.2867
    143  CB       -14.8370  -49.8630 -106.2030 C.3   309  ASP309      0.1410
    144  CG       -14.1590  -48.5520 -106.5440 C.2   309  ASP309      0.3668
    145  OD1      -13.6720  -48.4020 -107.6850 O.co2 309  ASP309     -0.2456
    146  OD2      -14.0990  -47.6760 -105.6530 O.co2 309  ASP309     -0.2456
    147  N        -18.9490  -47.9530  -98.6950 N.3   345  PHE345     -0.1241
    148  CA       -18.4810  -48.4740  -99.9730 C.3   345  PHE345      0.1605
    149  C        -18.1460  -49.9550  -99.8770 C.2   345  PHE345      0.2264
    150  O        -17.3940  -50.4850 -100.6980 O.2   345  PHE345     -0.2867
    151  CB       -17.2460  -47.6930 -100.4330 C.3   345  PHE345      0.0534
    152  CG       -17.5030  -46.2270 -100.6760 C.ar  345  PHE345     -0.0203
    153  CD1      -16.4440  -45.3260 -100.7310 C.ar  345  PHE345     -0.0042
    154  CD2      -18.7990  -45.7480 -100.8570 C.ar  345  PHE345     -0.0042
    155  CE1      -16.6700  -43.9670 -100.9610 C.ar  345  PHE345     -0.0003
    156  CE2      -19.0360  -44.3940 -101.0880 C.ar  345  PHE345     -0.0003
    157  CZ       -17.9690  -43.5020 -101.1400 C.ar  345  PHE345     -0.0000
@<TRIPOS>BOND
     1   119   118    2
     2   118   117    1
     3   117   116    1
     4   117   120    1
     5   120   121    1
     6   121   122   ar
     7   121   123   ar
     8   122   124   ar
     9   123   125   ar
    10   124   126   ar
    11    92    93    2
    12    92    91    1
    13   125   126   ar
    14    97    98    1
    15    91    90    1
    16    91    94    1
    17   109   110    1
    18   115   113    1
    19   110   113    1
    20   110   111    1
    21    98    99    1
    22    98   101    1
    23    94    96    1
    24    94    95    1
    25    99   100    2
    26   106   104   ar
    27   106   107   ar
    28   104   102   ar
    29   113   114    1
    30   111   112    2
    31   108   107    1
    32   107   105   ar
    33   102   101    1
    34   102   103   ar
    35   105   103   ar
    36   139   140    1
    37    28    27    2
    38    36    35    1
    39    47    46    1
    40   145   144   ar
    41   140   141    1
    42   140   143    1
    43   142   141    2
    44    35    34    1
    45    35    37    1
    46    25    26    1
    47    46    43    1
    48    27    26    1
    49    29    26    1
    50     8     6   am
    51   144   143    1
    52   144   146   ar
    53    52    49    1
    54    34    31    1
    55    30    31    1
    56    88    87    1
    57    49    48    1
    58    49    50    1
    59    48    44   am
    60   137   138    2
    61   137   136    1
    62     7     6    2
    63     6     5    1
    64   133   132    2
    65    44    43    1
    66    44    45    2
    67    43    42    1
    68   135   136    1
    69   135   129   am
    70   127   128    1
    71    31    32    1
    72   128   129    1
    73   128   131    1
    74    33    32    2
    75   129   130    2
    76     1     2    1
    77   132   131    1
    78   132   134   am
    79    50    51    2
    80    87    89    1
    81    87    86    1
    82    42    40   am
    83     5     2    1
    84     2     3    1
    85    86    83    1
    86    70    69    2
    87    40    41    2
    88    40    39    1
    89    55    56    2
    90    55    54    1
    91    74    72    1
    92    57    54    1
    93    57    58    1
    94    79    80    1
    95    79    81    1
    96    79    76    1
    97    71    72    1
    98    71    68    1
    99    78    77    2
   100     4     3    2
   101    53    54    1
   102    67    68    1
   103    39    38    1
   104    73    72    1
   105    69    68    1
   106    16    14    1
   107    59    58    2
   108    83    82    1
   109    83    84    1
   110    75    76    1
   111    58    60   am
   112    77    76    1
   113    84    85    2
   114   157   156   ar
   115   157   155   ar
   116   156   154   ar
   117   155   153   ar
   118    14    13    1
   119   154   152   ar
   120   153   152   ar
   121   150   149    2
   122   152   151    1
   123   151   148    1
   124    66    65    1
   125   148   149    1
   126   148   147    1
   127    13    15    1
   128    13    10    1
   129    65    62    1
   130     9    10    1
   131    10    11    1
   132    24    22   ar
   133    23    22   ar
   134    62    61    1
   135    62    63    1
   136    22    21    1
   137    63    64    2
   138    12    11    2
   139    21    18    1
   140    18    17    1
   141    18    19    1
   142    19    20    2
