@<TRIPOS>MOLECULE
tmp/2abaA00.pdb
 168 163 0 0 0
SMALL
GASTEIGER

@<TRIPOS>ATOM
      1  N          1.3520   31.0910   29.1480 N.3    21  ALA21      -0.1231
      2  CA         2.5970   30.6080   28.5630 C.3    21  ALA21       0.1679
      3  C          2.7260   31.0280   27.1140 C.2    21  ALA21       0.2434
      4  O          1.7210   31.2220   26.4400 O.2    21  ALA21      -0.2733
      5  CB         2.6530   29.1010   28.6500 C.3    21  ALA21       0.0304
      6  N          3.9580   31.1390   26.6110 N.am   22  PRO22      -0.2718
      7  CA         4.1580   31.3820   25.1840 C.3    22  PRO22       0.1535
      8  C          3.6190   30.1940   24.3860 C.2    22  PRO22       0.2598
      9  O          3.9410   29.0410   24.6650 O.2    22  PRO22      -0.2715
     10  CB         5.6800   31.5370   25.0630 C.3    22  PRO22       0.0310
     11  CG         6.2400   30.7220   26.2190 C.3    22  PRO22       0.0237
     12  CD         5.2290   30.9370   27.3360 C.3    22  PRO22       0.0939
     13  N          2.8220   30.4940   23.3670 N.am   23  LEU23      -0.1964
     14  CA         2.1070   29.4730   22.6000 C.3    23  LEU23       0.1728
     15  C          2.1490   29.8060   21.1280 C.2    23  LEU23       0.2617
     16  O          1.3850   30.6360   20.6470 O.2    23  LEU23      -0.2715
     17  CB         0.6600   29.3150   23.0810 C.3    23  LEU23       0.0311
     18  CG         0.5110   28.8280   24.5300 C.3    23  LEU23       0.0022
     19  CD1       -0.7950   29.3340   25.1050 C.3    23  LEU23       0.0001
     20  CD2        0.6330   27.3240   24.6000 C.3    23  LEU23       0.0001
     21  N          3.0320   29.1380   20.4010 N.am   24  THR24      -0.1937
     22  CA         3.0770   29.1950   18.9450 C.3    24  THR24       0.2028
     23  C          1.7610   28.6820   18.3630 C.2    24  THR24       0.2642
     24  O          1.3470   27.5590   18.6440 O.2    24  THR24      -0.2714
     25  CB         4.2460   28.3050   18.4790 C.3    24  THR24       0.1808
     26  OG1        5.4870   28.9410   18.7970 O.3    24  THR24      -0.2208
     27  CG2        4.2410   28.0700   16.9820 C.3    24  THR24       0.0379
     28  N          1.1160   29.5130   17.5300 N.am   25  ARG25      -0.1977
     29  CA        -0.1850   29.1580   16.9250 C.3    25  ARG25       0.1597
     30  C         -0.1380   29.1950   15.3980 C.2    25  ARG25       0.2287
     31  O         -1.0840   28.7250   14.7740 O.2    25  ARG25      -0.2864
     32  CB        -1.3130   30.0360   17.4850 C.3    25  ARG25       0.0334
     33  CG        -1.3960   30.0350   19.0100 C.3    25  ARG25       0.0492
     34  CD        -1.6420   28.6800   19.6720 C.3    25  ARG25       0.2205
     35  NE        -2.8690   28.0320   19.2000 N.pl3  25  ARG25      -0.0865
     36  CZ        -4.0950   28.3100   19.6260 C.cat  25  ARG25       0.5346
     37  NH1       -4.3050   29.1920   20.5890 N.pl3  25  ARG25       0.1354
     38  NH2       -5.1360   27.6680   19.0990 N.pl3  25  ARG25       0.1354
     39  N          6.3460   32.5600   20.4720 N.3    56  ALA56      -0.1245
     40  CA         7.7150   32.8350   20.0580 C.3    56  ALA56       0.1562
     41  C          7.7140   33.6410   18.7590 C.2    56  ALA56       0.2260
     42  O          6.9970   33.3280   17.7990 O.2    56  ALA56      -0.2867
     43  CB         8.4560   31.5400   19.8760 C.3    56  ALA56       0.0290
     44  N          7.9710   36.8960   23.5800 N.3    98  GLN98      -0.1245
     45  CA         9.0060   35.8820   23.5780 C.3    98  GLN98       0.1566
     46  C          9.7720   35.9610   22.2700 C.2    98  GLN98       0.2260
     47  O          9.1880   35.8870   21.1980 O.2    98  GLN98      -0.2867
     48  CB         8.4350   34.4800   23.7790 C.3    98  GLN98       0.0367
     49  CG         9.5640   33.4890   24.0410 C.3    98  GLN98       0.0905
     50  CD         9.1490   32.0390   24.0300 C.2    98  GLN98       0.2608
     51  OE1        8.5760   31.5670   23.0430 O.2    98  GLN98      -0.2717
     52  NE2        9.4630   31.3110   25.1030 N.am   98  GLN98      -0.0878
     53  N         12.8060   34.4790   19.8080 N.3   100  TRP100     -0.1241
     54  CA        13.6450   33.3240   19.4790 C.3   100  TRP100      0.1605
     55  C         14.4410   33.4940   18.2110 C.2   100  TRP100      0.2264
     56  O         14.1460   34.3120   17.3350 O.2   100  TRP100     -0.2867
     57  CB        12.8700   31.9910   19.3870 C.3   100  TRP100      0.0550
     58  CG        11.8690   31.8210   18.2800 C.ar  100  TRP100      0.0003
     59  CD1       11.4820   32.7370   17.3410 C.ar  100  TRP100      0.0946
     60  CD2       11.0210   30.6750   18.0970 C.ar  100  TRP100      0.0152
     61  NE1       10.4590   32.2170   16.5850 N.ar  100  TRP100     -0.2442
     62  CE2       10.1400   30.9680   17.0410 C.ar  100  TRP100      0.0810
     63  CE3       10.8880   29.4460   18.7580 C.ar  100  TRP100      0.0012
     64  CZ2        9.1330   30.0900   16.6410 C.ar  100  TRP100      0.0191
     65  CZ3        9.8970   28.5760   18.3540 C.ar  100  TRP100      0.0001
     66  CH2        9.0250   28.9110   17.3150 C.ar  100  TRP100      0.0015
     67  N         14.0850   33.3230   24.4580 N.3   179  HIS179     -0.1241
     68  CA        13.7820   31.9060   24.3290 C.3   179  HIS179      0.1621
     69  C         15.0680   31.0980   24.3570 C.2   179  HIS179      0.2264
     70  O         15.7010   30.8400   23.3110 O.2   179  HIS179     -0.2867
     71  CB        12.9980   31.6120   23.0590 C.3   179  HIS179      0.0745
     72  CG        12.3120   30.2980   23.0930 C.ar  179  HIS179      0.0817
     73  ND1       12.7290   29.2510   23.8970 N.ar  179  HIS179     -0.2268
     74  CD2       11.2220   29.8770   22.4160 C.ar  179  HIS179      0.1154
     75  CE1       11.8800   28.2550   23.7220 C.ar  179  HIS179      0.1986
     76  NE2       10.9680   28.5980   22.8180 N.ar  179  HIS179     -0.2212
     77  N         14.0650   24.5920   24.8780 N.3   182  HIS182     -0.1241
     78  CA        13.3250   23.7740   23.9150 C.3   182  HIS182      0.1621
     79  C         14.0890   23.4420   22.6440 C.2   182  HIS182      0.2264
     80  O         13.4850   23.1420   21.6150 O.2   182  HIS182     -0.2867
     81  CB        11.9720   24.3890   23.5990 C.3   182  HIS182      0.0745
     82  CG        11.0850   24.5210   24.7930 C.ar  182  HIS182      0.0817
     83  ND1        9.9610   25.3080   24.7960 N.ar  182  HIS182     -0.2268
     84  CD2       11.1340   23.9390   26.0150 C.ar  182  HIS182      0.1154
     85  CE1        9.3570   25.2020   25.9710 C.ar  182  HIS182      0.1986
     86  NE2       10.0560   24.3860   26.7390 N.ar  182  HIS182     -0.2212
     87  N         15.9740   25.3670   20.7630 N.3   184  TYR184     -0.1241
     88  CA        16.1900   26.4410   19.7780 C.3   184  TYR184      0.1605
     89  C         17.6140   26.9890   19.9060 C.2   184  TYR184      0.2264
     90  O         18.4430   26.3590   20.5640 O.2   184  TYR184     -0.2867
     91  CB        15.0670   27.4810   19.8360 C.3   184  TYR184      0.0534
     92  CG        13.7580   26.8080   19.5230 C.ar  184  TYR184     -0.0201
     93  CD1       13.5060   26.2890   18.2460 C.ar  184  TYR184     -0.0009
     94  CD2       12.7980   26.6150   20.5140 C.ar  184  TYR184     -0.0009
     95  CE1       12.3170   25.6300   17.9550 C.ar  184  TYR184      0.0417
     96  CE2       11.6210   25.9530   20.2420 C.ar  184  TYR184      0.0417
     97  CZ        11.3740   25.4670   18.9730 C.ar  184  TYR184      0.1957
     98  OH        10.1970   24.8040   18.7490 O.3   184  TYR184     -0.2866
     99  N         13.4790   32.2640   29.3460 N.3   231  ARG231     -0.1245
    100  CA        12.9440   30.9220   29.4790 C.3   231  ARG231      0.1563
    101  C         14.0440   29.9040   29.2370 C.2   231  ARG231      0.2260
    102  O         14.7530   29.9550   28.2290 O.2   231  ARG231     -0.2867
    103  CB        11.7920   30.6650   28.5240 C.3   231  ARG231      0.0307
    104  CG        10.9630   29.4910   28.9960 C.3   231  ARG231      0.0489
    105  CD         9.6790   29.2840   28.2400 C.3   231  ARG231      0.2205
    106  NE         8.6770   28.6480   29.0750 N.pl3 231  ARG231     -0.0865
    107  CZ         7.6160   27.9920   28.6370 C.cat 231  ARG231      0.5346
    108  NH1        7.4680   27.7000   27.3620 N.pl3 231  ARG231      0.1354
    109  NH2        6.7130   27.6050   29.5080 N.pl3 231  ARG231      0.1354
    110  N          6.3400   18.2410   26.3160 N.3   273  LEU273     -0.1245
    111  CA         4.9490   17.8150   26.1430 C.3   273  LEU273      0.1561
    112  C          4.8150   16.2970   26.0900 C.2   273  LEU273      0.2260
    113  O          3.7480   15.7600   26.3810 O.2   273  LEU273     -0.2867
    114  CB         4.3530   18.3700   24.8290 C.3   273  LEU273      0.0270
    115  CG         4.0040   19.8570   24.6570 C.3   273  LEU273      0.0019
    116  CD1        3.5910   20.1320   23.2160 C.3   273  LEU273      0.0001
    117  CD2        2.9250   20.3210   25.6240 C.3   273  LEU273      0.0001
    118  N          6.3550   26.0620   34.6590 N.3   298  ALA298     -0.1245
    119  CA         5.4530   25.6330   33.6000 C.3   298  ALA298      0.1562
    120  C          5.6800   24.1860   33.2700 C.2   298  ALA298      0.2260
    121  O          6.7800   23.6630   33.4210 O.2   298  ALA298     -0.2867
    122  CB         5.6660   26.4560   32.3370 C.3   298  ALA298      0.0290
    123  N         -0.2860   26.7070   29.5400 N.3   321  GLY321     -0.1210
    124  CA        -0.2920   26.7050   28.0860 C.3   321  GLY321      0.1956
    125  C         -1.6430   26.2780   27.5420 C.2   321  GLY321      0.2611
    126  O         -2.4910   27.1110   27.2080 O.2   321  GLY321     -0.2717
    127  N         -1.8840   24.9750   27.4630 N.am  322  ARG322     -0.1979
    128  CA        -3.0860   24.4630   26.8250 C.3   322  ARG322      0.1597
    129  C         -4.3670   24.8980   27.5210 C.2   322  ARG322      0.2287
    130  O         -5.3660   25.1590   26.8560 O.2   322  ARG322     -0.2864
    131  CB        -2.9900   22.9570   26.6760 C.3   322  ARG322      0.0334
    132  CG        -1.9480   22.5680   25.6430 C.3   322  ARG322      0.0492
    133  CD        -1.5520   21.1280   25.6930 C.3   322  ARG322      0.2205
    134  NE        -0.7740   20.8490   26.8920 N.pl3 322  ARG322     -0.0865
    135  CZ        -0.2120   19.6950   27.1360 C.cat 322  ARG322      0.5346
    136  NH1       -0.4110   18.6790   26.3080 N.pl3 322  ARG322      0.1354
    137  NH2        0.5210   19.5290   28.2180 N.pl3 322  ARG322      0.1354
    138  N         -4.9920   28.2350   25.9890 N.3   325  ILE325     -0.1245
    139  CA        -5.5560   28.0960   24.6450 C.3   325  ILE325      0.1561
    140  C         -7.0750   27.9780   24.7530 C.2   325  ILE325      0.2260
    141  O         -7.8230   28.6490   24.0330 O.2   325  ILE325     -0.2867
    142  CB        -4.9750   26.8580   23.9290 C.3   325  ILE325      0.0252
    143  CG1       -3.4990   27.1040   23.5960 C.3   325  ILE325      0.0019
    144  CG2       -5.8040   26.5070   22.6710 C.3   325  ILE325      0.0019
    145  CD1       -2.8170   25.9590   22.8690 C.3   325  ILE325      0.0001
    146  N         -4.5570   23.6310   17.3260 N.3   348  PHE348     -0.1227
    147  CA        -3.5000   24.3900   17.9630 C.3   348  PHE348      0.1736
    148  C         -2.6580   25.1410   16.9240 C.2   348  PHE348      0.2595
    149  O         -2.2880   26.2850   17.1500 O.2   348  PHE348     -0.2718
    150  CB        -2.5930   23.4960   18.8080 C.3   348  PHE348      0.0547
    151  CG        -3.2010   23.0080   20.1060 C.ar  348  PHE348     -0.0202
    152  CD1       -4.4430   23.4430   20.5780 C.ar  348  PHE348     -0.0042
    153  CD2       -2.4800   22.1080   20.8830 C.ar  348  PHE348     -0.0042
    154  CE1       -4.9360   22.9630   21.7980 C.ar  348  PHE348     -0.0003
    155  CE2       -2.9800   21.6280   22.0850 C.ar  348  PHE348     -0.0003
    156  CZ        -4.2050   22.0600   22.5360 C.ar  348  PHE348     -0.0000
    157  N         -2.3290   24.5070   15.7990 N.am  349  TYR349     -0.1976
    158  CA        -1.3820   25.0940   14.8310 C.3   349  TYR349      0.1639
    159  C         -2.0440   25.3880   13.4990 C.2   349  TYR349      0.2290
    160  O         -2.6180   24.4980   12.8680 O.2   349  TYR349     -0.2864
    161  CB        -0.2070   24.1530   14.5790 C.3   349  TYR349      0.0560
    162  CG         0.4580   23.6950   15.8500 C.ar  349  TYR349     -0.0198
    163  CD1        1.2650   24.5530   16.5850 C.ar  349  TYR349     -0.0009
    164  CD2        0.2510   22.4140   16.3310 C.ar  349  TYR349     -0.0009
    165  CE1        1.8400   24.1480   17.7830 C.ar  349  TYR349      0.0417
    166  CE2        0.8310   21.9890   17.5150 C.ar  349  TYR349      0.0417
    167  CZ         1.6300   22.8600   18.2340 C.ar  349  TYR349      0.1957
    168  OH         2.2120   22.4560   19.4170 O.3   349  TYR349     -0.2866
@<TRIPOS>BOND
     1   160   159    2
     2   159   158    1
     3   161   158    1
     4   161   162    1
     5    31    30    2
     6   158   157    1
     7    30    29    1
     8   157   148   am
     9   162   164   ar
    10   162   163   ar
    11   164   166   ar
    12   163   165   ar
    13    61    62   ar
    14    61    59   ar
    15    64    62   ar
    16    64    66   ar
    17   148   149    2
    18   148   147    1
    19    29    32    1
    20    29    28    1
    21    27    25    1
    22    62    60   ar
    23    66    65   ar
    24   146   147    1
    25    56    55    2
    26    59    58   ar
    27    32    33    1
    28   166   167   ar
    29    28    23   am
    30   165   167   ar
    31    42    41    2
    32    95    93   ar
    33    95    97   ar
    34   147   150    1
    35    60    58   ar
    36    60    63   ar
    37    55    54    1
    38   167   168    1
    39    93    92   ar
    40    58    57    1
    41    65    63   ar
    42    23    24    2
    43    23    22    1
    44    25    26    1
    45    25    22    1
    46    98    97    1
    47    41    40    1
    48   150   151    1
    49    22    21    1
    50    97    96   ar
    51    33    34    1
    52    38    36    1
    53    35    36    2
    54    35    34    1
    55    57    54    1
    56    54    53    1
    57    92    91    1
    58    92    94   ar
    59    36    37    1
    60    88    91    1
    61    88    89    1
    62    88    87    1
    63    43    40    1
    64    89    90    2
    65    40    39    1
    66   151   152   ar
    67   151   153   ar
    68    96    94   ar
    69    21    15   am
    70   152   154   ar
    71    16    15    2
    72   153   155   ar
    73    15    14    1
    74    47    46    2
    75    80    79    2
    76   154   156   ar
    77   155   156   ar
    78    46    45    1
    79    74    76   ar
    80    74    72   ar
    81    14    17    1
    82    14    13    1
    83    79    78    1
    84   144   142    1
    85    76    75   ar
    86   145   143    1
    87    51    50    2
    88    71    72    1
    89    71    68    1
    90    17    18    1
    91    72    73   ar
    92   116   115    1
    93    70    69    2
    94    13     8   am
    95    45    44    1
    96    45    48    1
    97   143   142    1
    98    81    78    1
    99    81    82    1
   100    75    73   ar
   101    48    49    1
   102    78    77    1
   103   142   139    1
   104    50    49    1
   105    50    52   am
   106   141   140    2
   107    68    69    1
   108    68    67    1
   109     8     9    2
   110     8     7    1
   111    18    20    1
   112    18    19    1
   113   139   140    1
   114   139   138    1
   115   115   114    1
   116   115   117    1
   117    82    83   ar
   118    82    84   ar
   119    83    85   ar
   120   114   111    1
   121    10     7    1
   122    10    11    1
   123     7     6    1
   124   132   133    1
   125   132   131    1
   126   133   134    1
   127    85    86   ar
   128    84    86   ar
   129   112   111    1
   130   112   113    2
   131   111   110    1
   132    11    12    1
   133   136   135    1
   134     4     3    2
   135     6     3   am
   136     6    12    1
   137   131   128    1
   138   128   127    1
   139   128   129    1
   140   130   129    2
   141   134   135    2
   142     3     2    1
   143   135   137    1
   144   126   125    2
   145   108   107    1
   146   127   125   am
   147   125   124    1
   148   124   123    1
   149   102   101    2
   150   105   104    1
   151   105   106    1
   152   103   104    1
   153   103   100    1
   154     2     5    1
   155     2     1    1
   156   107   106    2
   157   107   109    1
   158   101   100    1
   159    99   100    1
   160   122   119    1
   161   120   121    2
   162   120   119    1
   163   119   118    1
