@<TRIPOS>MOLECULE
tmp/2abeA00.pdb
 99 97 0 0 0
SMALL
GASTEIGER

@<TRIPOS>ATOM
      1  N          8.3410   -0.4680   10.5380 N.3     2  TRP2       -0.1241
      2  CA         7.6810   -1.4270   11.4080 C.3     2  TRP2        0.1605
      3  C          6.7240   -2.2830   10.5970 C.2     2  TRP2        0.2264
      4  O          6.1910   -1.8440    9.5740 O.2     2  TRP2       -0.2867
      5  CB         6.9150   -0.7190   12.5300 C.3     2  TRP2        0.0550
      6  CG         5.7170    0.0710   12.0820 C.ar    2  TRP2        0.0003
      7  CD1        5.6860    1.3890   11.7290 C.ar    2  TRP2        0.0946
      8  CD2        4.3680   -0.4060   11.9750 C.ar    2  TRP2        0.0152
      9  NE1        4.3990    1.7640   11.4130 N.ar    2  TRP2       -0.2442
     10  CE2        3.5720    0.6810   11.5560 C.ar    2  TRP2        0.0810
     11  CE3        3.7560   -1.6490   12.1950 C.ar    2  TRP2        0.0012
     12  CZ2        2.1900    0.5660   11.3520 C.ar    2  TRP2        0.0191
     13  CZ3        2.3840   -1.7630   11.9930 C.ar    2  TRP2        0.0001
     14  CH2        1.6160   -0.6590   11.5760 C.ar    2  TRP2        0.0015
     15  N         -3.3460    0.5220    3.7050 N.3    59  ASN59      -0.1240
     16  CA        -2.2050    1.3230    4.1520 C.3    59  ASN59       0.1653
     17  C         -0.9350    0.5170    4.4080 C.2    59  ASN59       0.2266
     18  O          0.0000    1.0050    5.0530 O.2    59  ASN59      -0.2867
     19  CB        -2.5730    2.0920    5.4220 C.3    59  ASN59       0.1155
     20  CG        -3.0520    1.1790    6.5300 C.2    59  ASN59       0.2627
     21  OD1       -2.5560    0.0660    6.6820 O.2    59  ASN59      -0.2716
     22  ND2       -4.0110    1.6510    7.3190 N.am   59  ASN59      -0.0877
     23  N         -0.6340   -2.1560    6.2910 N.3    61  HIS61      -0.1241
     24  CA        -0.6800   -2.9640    7.5050 C.3    61  HIS61       0.1621
     25  C         -2.1030   -3.4140    7.8350 C.2    61  HIS61       0.2264
     26  O         -2.3130   -4.2420    8.7130 O.2    61  HIS61      -0.2867
     27  CB        -0.0450   -2.2140    8.6860 C.3    61  HIS61       0.0745
     28  CG        -0.7930   -0.9930    9.1180 C.ar   61  HIS61       0.0817
     29  ND1       -1.9980   -1.0550    9.7810 N.ar   61  HIS61      -0.2268
     30  CD2       -0.4900    0.3230    9.0130 C.ar   61  HIS61       0.1154
     31  CE1       -2.4050    0.1680   10.0680 C.ar   61  HIS61       0.1986
     32  NE2       -1.5070    1.0230    9.6120 N.ar   61  HIS61      -0.2212
     33  N         -8.3750    0.5410    5.9350 N.3    64  ASN64      -0.1240
     34  CA        -9.2340    1.4670    6.6510 C.3    64  ASN64       0.1653
     35  C        -10.4030    1.9260    5.7940 C.2    64  ASN64       0.2266
     36  O        -10.2490    2.1600    4.5920 O.2    64  ASN64      -0.2867
     37  CB        -8.4630    2.7340    7.0500 C.3    64  ASN64       0.1155
     38  CG        -7.4310    2.5040    8.1400 C.2    64  ASN64       0.2627
     39  OD1       -6.7750    3.4490    8.5750 O.2    64  ASN64      -0.2716
     40  ND2       -7.2790    1.2680    8.5810 N.am   64  ASN64      -0.0877
     41  N        -12.5670    6.3300   11.2810 N.3    89  GLN89      -0.1245
     42  CA       -12.2440    5.1730   10.4490 C.3    89  GLN89       0.1566
     43  C        -12.3840    3.8710   11.2200 C.2    89  GLN89       0.2260
     44  O        -12.3710    3.8650   12.4440 O.2    89  GLN89      -0.2867
     45  CB       -10.7970    5.2770    9.9560 C.3    89  GLN89       0.0367
     46  CG        -9.7730    5.3630   11.1090 C.3    89  GLN89       0.0905
     47  CD        -9.0470    4.0560   11.3960 C.2    89  GLN89       0.2608
     48  OE1       -9.6130    2.9660   11.2890 O.2    89  GLN89      -0.2717
     49  NE2       -7.7810    4.1660   11.7820 N.am   89  GLN89      -0.0878
     50  N        -11.1510   -0.4590   11.0360 N.3    91  HIS91      -0.1241
     51  CA       -10.2720   -1.4270   10.4050 C.3    91  HIS91       0.1621
     52  C        -10.3340   -2.7060   11.2210 C.2    91  HIS91       0.2264
     53  O        -10.9450   -2.7380   12.2860 O.2    91  HIS91      -0.2867
     54  CB        -8.8260   -0.9140   10.3690 C.3    91  HIS91       0.0745
     55  CG        -8.2790   -0.5630   11.7180 C.ar   91  HIS91       0.0817
     56  ND1       -8.3930    0.6970   12.2630 N.ar   91  HIS91      -0.2268
     57  CD2       -7.6530   -1.3190   12.6490 C.ar   91  HIS91       0.1154
     58  CE1       -7.8610    0.7030   13.4720 C.ar   91  HIS91       0.1986
     59  NE2       -7.4050   -0.5080   13.7290 N.ar   91  HIS91      -0.2212
     60  N         -8.4830   15.3110   14.8800 N.3   127  PHE127     -0.1241
     61  CA        -7.8200   14.0770   15.2850 C.3   127  PHE127      0.1605
     62  C         -6.3800   14.3090   15.7370 C.2   127  PHE127      0.2264
     63  O         -5.9340   13.7370   16.7320 O.2   127  PHE127     -0.2867
     64  CB        -7.8310   13.0870   14.1200 C.3   127  PHE127      0.0534
     65  CG        -7.2120   11.7640   14.4430 C.ar  127  PHE127     -0.0203
     66  CD1       -7.9390   10.7870   15.1110 C.ar  127  PHE127     -0.0042
     67  CD2       -5.9000   11.4880   14.0720 C.ar  127  PHE127     -0.0042
     68  CE1       -7.3710    9.5500   15.4030 C.ar  127  PHE127     -0.0003
     69  CE2       -5.3220   10.2550   14.3600 C.ar  127  PHE127     -0.0003
     70  CZ        -6.0600    9.2830   15.0270 C.ar  127  PHE127     -0.0000
     71  N         -3.2690    2.9230   21.1390 N.3   194  LEU194     -0.1245
     72  CA        -3.5210    2.4280   19.7900 C.3   194  LEU194      0.1561
     73  C         -2.6420    1.1860   19.7540 C.2   194  LEU194      0.2260
     74  O         -1.6470    1.1160   20.4780 O.2   194  LEU194     -0.2867
     75  CB        -3.0520    3.4390   18.7470 C.3   194  LEU194      0.0270
     76  CG        -3.9070    4.7010   18.6570 C.3   194  LEU194      0.0019
     77  CD1       -3.2070    5.7600   17.8240 C.3   194  LEU194      0.0001
     78  CD2       -5.2500    4.3380   18.0590 C.3   194  LEU194      0.0001
     79  N         -0.9230    0.0200   17.1180 N.3   196  THR196     -0.1204
     80  CA         0.1000    0.0830   16.0870 C.3   196  THR196      0.1979
     81  C          0.8430    1.3880   16.2970 C.2   196  THR196      0.2460
     82  O          0.3040    2.3260   16.8900 O.2   196  THR196     -0.2732
     83  CB        -0.5050    0.0890   14.6580 C.3   196  THR196      0.1783
     84  OG1       -1.4020    1.1980   14.5240 O.3   196  THR196     -0.2211
     85  CG2       -1.2510   -1.2050   14.3840 C.3   196  THR196      0.0376
     86  N          2.1040    1.4590   15.8440 N.am  197  PRO197     -0.2718
     87  CA         2.8540    2.7010   16.0160 C.3   197  PRO197      0.1520
     88  C          2.0090    3.8380   15.4610 C.2   197  PRO197      0.2440
     89  O          1.2930    3.6590   14.4700 O.2   197  PRO197     -0.2731
     90  CB         4.1120    2.4500   15.1940 C.3   197  PRO197      0.0310
     91  CG         4.3550    0.9980   15.4390 C.3   197  PRO197      0.0237
     92  CD         2.9610    0.4020   15.2780 C.3   197  PRO197      0.0939
     93  N          2.1120    5.0370   16.0540 N.am  198  PRO198     -0.2727
     94  CA         2.9570    5.4120   17.1940 C.3   198  PRO198      0.1402
     95  C          2.5620    4.9130   18.5890 C.2   198  PRO198      0.2269
     96  O          3.1300    5.3610   19.5800 O.2   198  PRO198     -0.2865
     97  CB         2.9770    6.9330   17.1080 C.3   198  PRO198      0.0296
     98  CG         1.6080    7.2450   16.5990 C.3   198  PRO198      0.0237
     99  CD         1.4030    6.2100   15.5150 C.3   198  PRO198      0.0939
@<TRIPOS>BOND
     1    15    16    1
     2    16    17    1
     3    16    19    1
     4    17    18    2
     5    36    35    2
     6    19    20    1
     7    35    34    1
     8    33    34    1
     9    23    24    1
    10    20    21    2
    11    20    22   am
    12    34    37    1
    13    37    38    1
    14    24    25    1
    15    24    27    1
    16    25    26    2
    17    38    39    2
    18    38    40   am
    19    27    28    1
    20    30    28   ar
    21    30    32   ar
    22    28    29   ar
    23     4     3    2
    24    32    31   ar
    25    29    31   ar
    26    45    42    1
    27    45    46    1
    28    54    51    1
    29    54    55    1
    30    51    50    1
    31    51    52    1
    32    42    43    1
    33    42    41    1
    34     1     2    1
    35     3     2    1
    36    46    47    1
    37    43    44    2
    38    52    53    2
    39    48    47    2
    40    12    10   ar
    41    12    14   ar
    42    47    49   am
    43     2     5    1
    44     9    10   ar
    45     9     7   ar
    46    10     8   ar
    47    14    13   ar
    48    55    56   ar
    49    55    57   ar
    50     7     6   ar
    51     8     6   ar
    52     8    11   ar
    53    13    11   ar
    54     6     5    1
    55    56    58   ar
    56    57    59   ar
    57    58    59   ar
    58    67    69   ar
    59    67    65   ar
    60    64    65    1
    61    64    61    1
    62    69    70   ar
    63    85    83    1
    64    65    66   ar
    65    89    88    2
    66    84    83    1
    67    83    80    1
    68    60    61    1
    69    70    68   ar
    70    66    68   ar
    71    90    91    1
    72    90    87    1
    73    92    91    1
    74    92    86    1
    75    61    62    1
    76    88    87    1
    77    88    93   am
    78    99    93    1
    79    99    98    1
    80    62    63    2
    81    86    87    1
    82    86    81   am
    83    93    94    1
    84    80    81    1
    85    80    79    1
    86    81    82    2
    87    98    97    1
    88    97    94    1
    89    94    95    1
    90    77    76    1
    91    78    76    1
    92    95    96    2
    93    76    75    1
    94    75    72    1
    95    73    72    1
    96    73    74    2
    97    72    71    1
