@<TRIPOS>MOLECULE
tmp/2abjA01.pdb
 148 137 0 0 0
SMALL
GASTEIGER

@<TRIPOS>ATOM
      1  N         34.3230   65.8500  103.0340 N.3    75  PHE75      -0.1241
      2  CA        35.2030   65.3560  101.9840 C.3    75  PHE75       0.1605
      3  C         35.3550   66.3730  100.8600 C.2    75  PHE75       0.2264
      4  O         34.6380   67.3860  100.8000 O.2    75  PHE75      -0.2867
      5  CB        34.7260   63.9810  101.4470 C.3    75  PHE75       0.0534
      6  CG        33.3900   64.0230  100.7310 C.ar   75  PHE75      -0.0203
      7  CD1       32.1950   63.9450  101.4490 C.ar   75  PHE75      -0.0042
      8  CD2       33.3280   64.1370   99.3450 C.ar   75  PHE75      -0.0042
      9  CE1       30.9700   63.9930  100.7970 C.ar   75  PHE75      -0.0003
     10  CE2       32.1040   64.1800   98.6840 C.ar   75  PHE75      -0.0003
     11  CZ        30.9230   64.1040   99.4080 C.ar   75  PHE75      -0.0000
     12  N         36.5450   66.3480   96.3700 N.3    77  GLY77      -0.1225
     13  CA        36.7370   65.5700   95.1680 C.3    77  GLY77       0.1811
     14  C         37.3310   66.4460   94.0970 C.2    77  GLY77       0.2280
     15  O         36.7350   67.4440   93.6970 O.2    77  GLY77      -0.2866
     16  N         38.8230   73.8540   95.5620 N.3    96  ASN96      -0.1240
     17  CA        38.5460   72.7220   96.4560 C.3    96  ASN96       0.1653
     18  C         39.0960   72.9470   97.8640 C.2    96  ASN96       0.2266
     19  O         38.4850   72.5390   98.8450 O.2    96  ASN96      -0.2867
     20  CB        39.1140   71.4210   95.8860 C.3    96  ASN96       0.1155
     21  CG        38.4670   71.0230   94.5790 C.2    96  ASN96       0.2627
     22  OD1       37.4320   70.3420   94.5620 O.2    96  ASN96      -0.2716
     23  ND2       39.0790   71.4350   93.4670 N.am   96  ASN96      -0.0877
     24  N         36.7280   75.4310   99.5110 N.3    99  ARG99      -0.1245
     25  CA        35.4880   74.7650   99.8830 C.3    99  ARG99       0.1563
     26  C         35.6720   73.8500  101.1020 C.2    99  ARG99       0.2260
     27  O         34.8180   73.8150  101.9880 O.2    99  ARG99      -0.2867
     28  CB        34.9300   73.9940   98.6850 C.3    99  ARG99       0.0307
     29  CG        33.4810   73.5650   98.8220 C.3    99  ARG99       0.0489
     30  CD        32.9130   73.0770   97.4800 C.3    99  ARG99       0.2205
     31  NE        33.5690   71.8610   97.0030 N.pl3  99  ARG99      -0.0865
     32  CZ        33.4270   71.3520   95.7780 C.cat  99  ARG99       0.5346
     33  NH1       32.6550   71.9530   94.8810 N.pl3  99  ARG99       0.1354
     34  NH2       34.0690   70.2400   95.4420 N.pl3  99  ARG99       0.1354
     35  N         16.8040   66.8290   99.4170 N.3   192  ARG192     -0.1245
     36  CA        18.2540   66.6690   99.5650 C.3   192  ARG192      0.1563
     37  C         18.7920   67.5860  100.6570 C.2   192  ARG192      0.2260
     38  O         19.6380   67.1890  101.4630 O.2   192  ARG192     -0.2867
     39  CB        18.9850   66.9500   98.2450 C.3   192  ARG192      0.0307
     40  CG        20.4140   66.4290   98.2310 C.3   192  ARG192      0.0489
     41  CD        21.2520   66.9870   97.0800 C.3   192  ARG192      0.2205
     42  NE        21.5780   68.4080   97.2330 N.pl3 192  ARG192     -0.0865
     43  CZ        22.5750   68.8900   97.9810 C.cat 192  ARG192      0.5346
     44  NH1       23.3580   68.0730   98.6860 N.pl3 192  ARG192      0.1354
     45  NH2       22.7830   70.2020   98.0330 N.pl3 192  ARG192      0.1354
     46  N         30.0800   70.2000  101.6710 N.3   202  LYS202     -0.1245
     47  CA        30.3460   68.7880  101.4310 C.3   202  LYS202      0.1561
     48  C         30.5460   68.0150  102.7310 C.2   202  LYS202      0.2260
     49  O         31.5240   67.2820  102.8990 O.2   202  LYS202     -0.2867
     50  CB        31.5400   68.6290  100.4990 C.3   202  LYS202      0.0271
     51  CG        31.1570   68.2840   99.0800 C.3   202  LYS202      0.0035
     52  CD        32.2540   68.6960   98.1180 C.3   202  LYS202      0.0206
     53  CE        32.5700   67.5860   97.1610 C.3   202  LYS202      0.1093
     54  NZ        31.3520   67.2150   96.3910 N.3   202  LYS202     -0.1314
     55  N         24.6600   63.2200  102.5520 N.3   207  TYR207     -0.1241
     56  CA        24.7250   62.1250  101.5880 C.3   207  TYR207      0.1605
     57  C         24.1420   60.8100  102.0960 C.2   207  TYR207      0.2264
     58  O         23.5600   60.0550  101.3180 O.2   207  TYR207     -0.2867
     59  CB        26.1660   61.9620  101.0750 C.3   207  TYR207      0.0534
     60  CG        26.6730   63.2600  100.4690 C.ar  207  TYR207     -0.0201
     61  CD1       27.3420   64.2010  101.2510 C.ar  207  TYR207     -0.0009
     62  CD2       26.4270   63.5700   99.1290 C.ar  207  TYR207     -0.0009
     63  CE1       27.7650   65.4130  100.7180 C.ar  207  TYR207      0.0417
     64  CE2       26.8510   64.7760   98.5860 C.ar  207  TYR207      0.0417
     65  CZ        27.5190   65.6930   99.3910 C.ar  207  TYR207      0.1957
     66  OH        27.9410   66.8860   98.8650 O.3   207  TYR207     -0.2866
     67  N         19.1830   69.6570   91.9290 N.3   237  GLU237     -0.1245
     68  CA        20.4040   68.9180   91.5990 C.3   237  GLU237      0.1567
     69  C         20.1000   67.5340   91.0540 C.2   237  GLU237      0.2260
     70  O         19.0400   66.9660   91.3320 O.2   237  GLU237     -0.2867
     71  CB        21.3240   68.8080   92.8220 C.3   237  GLU237      0.0388
     72  CG        21.8600   70.1560   93.3030 C.3   237  GLU237      0.1160
     73  CD        23.1920   70.0420   93.9690 C.2   237  GLU237      0.3649
     74  OE1       23.9920   69.1870   93.5390 O.co2 237  GLU237     -0.2457
     75  OE2       23.4540   70.7960   94.9160 O.co2 237  GLU237     -0.2457
     76  N         21.3590   63.9490   91.3960 N.3   239  GLY239     -0.1210
     77  CA        22.1740   63.0960   92.2470 C.3   239  GLY239      0.1956
     78  C         23.1640   63.9250   93.0420 C.2   239  GLY239      0.2612
     79  O         22.7690   64.7400   93.8800 O.2   239  GLY239     -0.2717
     80  N         24.4490   63.7280   92.7490 N.am  240  THR240     -0.1952
     81  CA        25.5350   64.4900   93.3680 C.3   240  THR240      0.1897
     82  C         26.1490   65.4670   92.3570 C.2   240  THR240      0.2313
     83  O         27.3360   65.8060   92.4460 O.2   240  THR240     -0.2863
     84  CB        26.6420   63.5490   93.8830 C.3   240  THR240      0.1794
     85  OG1       27.1120   62.7310   92.7980 O.3   240  THR240     -0.2208
     86  CG2       26.1280   62.6590   95.0150 C.3   240  THR240      0.0378
     87  N         25.4590   69.1690   89.8060 N.3   242  ASN242     -0.1240
     88  CA        24.6550   70.3680   89.5760 C.3   242  ASN242      0.1653
     89  C         23.7520   70.2530   88.3420 C.2   242  ASN242      0.2266
     90  O         24.0500   69.4980   87.4250 O.2   242  ASN242     -0.2867
     91  CB        25.5330   71.6110   89.5180 C.3   242  ASN242      0.1155
     92  CG        26.0700   71.9830   90.8750 C.2   242  ASN242      0.2627
     93  OD1       25.3020   72.2890   91.7930 O.2   242  ASN242     -0.2716
     94  ND2       27.3890   71.9400   91.0260 N.am  242  ASN242     -0.0877
     95  N         24.9290   72.8550   96.1850 N.3   266  LEU266     -0.1245
     96  CA        26.3650   72.7490   96.3980 C.3   266  LEU266      0.1561
     97  C         27.0570   73.5410   95.2870 C.2   266  LEU266      0.2260
     98  O         26.8020   73.2820   94.1090 O.2   266  LEU266     -0.2867
     99  CB        26.8110   71.2790   96.3990 C.3   266  LEU266      0.0270
    100  CG        28.2070   70.8460   96.9030 C.3   266  LEU266      0.0019
    101  CD1       29.3420   71.2520   95.9420 C.3   266  LEU266      0.0001
    102  CD2       28.4970   71.3360   98.3230 C.3   266  LEU266      0.0001
    103  N         29.3940   73.8140   92.9380 N.3   268  GLY268     -0.1210
    104  CA        30.3720   73.0030   92.2260 C.3   268  GLY268      0.1956
    105  C         31.4290   73.8110   91.4940 C.2   268  GLY268      0.2612
    106  O         31.1710   74.9330   91.0450 O.2   268  GLY268     -0.2717
    107  N         32.6250   73.2370   91.3920 N.am  269  VAL269     -0.1965
    108  CA        33.7110   73.8020   90.5900 C.3   269  VAL269      0.1727
    109  C         33.3590   73.7050   89.1070 C.2   269  VAL269      0.2617
    110  O         33.5400   74.6700   88.3560 O.2   269  VAL269     -0.2715
    111  CB        35.0480   73.0720   90.8650 C.3   269  VAL269      0.0290
    112  CG1       36.1510   73.5430   89.9060 C.3   269  VAL269      0.0023
    113  CG2       35.4770   73.2910   92.3050 C.3   269  VAL269      0.0023
    114  N         32.8500   72.5420   88.6940 N.am  270  THR270     -0.1937
    115  CA        32.4360   72.3330   87.3100 C.3   270  THR270      0.2028
    116  C         31.3410   73.3260   86.9320 C.2   270  THR270      0.2642
    117  O         31.4080   73.9610   85.8780 O.2   270  THR270     -0.2714
    118  CB        31.9440   70.8940   87.0720 C.3   270  THR270      0.1808
    119  OG1       32.8270   69.9780   87.7280 O.3   270  THR270     -0.2208
    120  CG2       31.8990   70.5780   85.5750 C.3   270  THR270      0.0379
    121  N         30.3460   73.4520   87.8100 N.am  271  ARG271     -0.1977
    122  CA        29.2750   74.4410   87.6820 C.3   271  ARG271      0.1597
    123  C         29.8100   75.8700   87.4660 C.2   271  ARG271      0.2287
    124  O         29.3380   76.5750   86.5750 O.2   271  ARG271     -0.2864
    125  CB        28.3610   74.3780   88.9150 C.3   271  ARG271      0.0334
    126  CG        27.1840   75.3520   88.9090 C.3   271  ARG271      0.0492
    127  CD        26.6130   75.5350   90.3170 C.3   271  ARG271      0.2205
    128  NE        25.5340   76.5200   90.3530 N.pl3 271  ARG271     -0.0865
    129  CZ        25.7110   77.8330   90.5100 C.cat 271  ARG271      0.5346
    130  NH1       26.9320   78.3350   90.6450 N.pl3 271  ARG271      0.1354
    131  NH2       24.6620   78.6480   90.5240 N.pl3 271  ARG271      0.1354
    132  N         26.3520   68.3030   86.1640 N.3   311  SER311     -0.1202
    133  CA        27.7870   68.6060   86.2070 C.3   311  SER311      0.2020
    134  C         28.4310   68.2650   87.5480 C.2   311  SER311      0.2619
    135  O         27.8730   68.5500   88.6090 O.2   311  SER311     -0.2717
    136  CB        28.0690   70.0740   85.8260 C.3   311  SER311      0.2103
    137  OG        27.7760   70.9810   86.8830 O.3   311  SER311     -0.2182
    138  N         29.6220   67.6700   87.4810 N.am  312  GLY312     -0.1942
    139  CA        30.3810   67.2790   88.6710 C.3   312  GLY312      0.2014
    140  C         31.7650   66.7960   88.3010 C.2   312  GLY312      0.2639
    141  O         32.0450   66.5440   87.1270 O.2   312  GLY312     -0.2714
    142  N         32.6330   66.6410   89.2990 N.am  313  THR313     -0.1950
    143  CA        34.0290   66.2800   89.0480 C.3   313  THR313      0.1897
    144  C         34.1940   64.9190   88.3580 C.2   313  THR313      0.2313
    145  O         34.9460   64.8150   87.3880 O.2   313  THR313     -0.2863
    146  CB        34.8760   66.3950   90.3330 C.3   313  THR313      0.1794
    147  OG1       34.9660   67.7720   90.6830 O.3   313  THR313     -0.2208
    148  CG2       36.3000   65.8620   90.1360 C.3   313  THR313      0.0378
@<TRIPOS>BOND
     1   120   118    1
     2   136   133    1
     3   136   137    1
     4   117   116    2
     5   132   133    1
     6   133   134    1
     7   124   123    2
     8   116   115    1
     9   116   121   am
    10   118   115    1
    11   118   119    1
    12   141   140    2
    13   115   114    1
    14   145   144    2
    15    90    89    2
    16   123   122    1
    17   138   134   am
    18   138   139    1
    19   134   135    2
    20   122   121    1
    21   122   125    1
    22   140   139    1
    23   140   142   am
    24    89    88    1
    25   110   109    2
    26   144   143    1
    27   114   109   am
    28   126   125    1
    29   126   127    1
    30   143   142    1
    31   143   146    1
    32   109   108    1
    33    91    88    1
    34    91    92    1
    35    88    87    1
    36   112   111    1
    37   148   146    1
    38   127   128    1
    39   146   147    1
    40   128   129    2
    41   129   131    1
    42   129   130    1
    43   108   111    1
    44   108   107    1
    45   111   113    1
    46    92    94   am
    47    92    93    2
    48   106   105    2
    49    69    70    2
    50    69    68    1
    51   107   105   am
    52    76    77    1
    53   105   104    1
    54    68    67    1
    55    68    71    1
    56   104   103    1
    57    77    78    1
    58    82    83    2
    59    82    81    1
    60    80    78   am
    61    80    81    1
    62    85    84    1
    63    71    72    1
    64    78    79    2
    65    72    73    1
    66    81    84    1
    67    23    21   am
    68    74    73   ar
    69    15    14    2
    70    84    86    1
    71    73    75   ar
    72    14    13    1
    73    98    97    2
    74    22    21    2
    75    21    20    1
    76    33    32    1
    77    13    12    1
    78    97    96    1
    79    34    32    1
    80    16    17    1
    81    32    31    2
    82    20    17    1
    83   101   100    1
    84    95    96    1
    85    54    53    1
    86    96    99    1
    87    99   100    1
    88    17    18    1
    89   100   102    1
    90    31    30    1
    91    41    42    1
    92    41    40    1
    93    53    52    1
    94    42    43    2
    95    30    29    1
    96    18    19    2
    97    43    45    1
    98    43    44    1
    99    52    51    1
   100    40    39    1
   101    39    36    1
   102    64    62   ar
   103    64    65   ar
   104    10     8   ar
   105    10    11   ar
   106    28    29    1
   107    28    25    1
   108    66    65    1
   109    51    50    1
   110    62    60   ar
   111     8     6   ar
   112    65    63   ar
   113    11     9   ar
   114    35    36    1
   115    24    25    1
   116    36    37    1
   117    25    26    1
   118    60    59    1
   119    60    61   ar
   120    50    47    1
   121    37    38    2
   122    63    61   ar
   123     6     5    1
   124     6     7   ar
   125     9     7   ar
   126     4     3    2
   127     3     2    1
   128    59    56    1
   129    26    27    2
   130    58    57    2
   131    47    46    1
   132    47    48    1
   133     5     2    1
   134    56    57    1
   135    56    55    1
   136     2     1    1
   137    48    49    2
