@<TRIPOS>MOLECULE
tmp/2abjA00.pdb
 169 159 0 0 0
SMALL
GASTEIGER

@<TRIPOS>ATOM
      1  N         34.5820   53.5200   89.2010 N.3    29  PHE29      -0.1241
      2  CA        34.8640   54.6750   90.0600 C.3    29  PHE29       0.1605
      3  C         35.0180   54.3110   91.5360 C.2    29  PHE29       0.2264
      4  O         34.1830   53.6040   92.0970 O.2    29  PHE29      -0.2867
      5  CB        33.7950   55.7690   89.9030 C.3    29  PHE29       0.0534
      6  CG        33.9320   56.8840   90.9050 C.ar   29  PHE29      -0.0203
      7  CD1       34.7740   57.9590   90.6570 C.ar   29  PHE29      -0.0042
      8  CD2       33.2460   56.8340   92.1200 C.ar   29  PHE29      -0.0042
      9  CE1       34.9250   58.9760   91.5930 C.ar   29  PHE29      -0.0003
     10  CE2       33.3920   57.8370   93.0600 C.ar   29  PHE29      -0.0003
     11  CZ        34.2310   58.9140   92.7980 C.ar   29  PHE29      -0.0000
     12  N         34.3230   65.8500  103.0340 N.3    75  PHE75      -0.1241
     13  CA        35.2030   65.3560  101.9840 C.3    75  PHE75       0.1605
     14  C         35.3550   66.3730  100.8600 C.2    75  PHE75       0.2264
     15  O         34.6380   67.3860  100.8000 O.2    75  PHE75      -0.2867
     16  CB        34.7260   63.9810  101.4470 C.3    75  PHE75       0.0534
     17  CG        33.3900   64.0230  100.7310 C.ar   75  PHE75      -0.0203
     18  CD1       32.1950   63.9450  101.4490 C.ar   75  PHE75      -0.0042
     19  CD2       33.3280   64.1370   99.3450 C.ar   75  PHE75      -0.0042
     20  CE1       30.9700   63.9930  100.7970 C.ar   75  PHE75      -0.0003
     21  CE2       32.1040   64.1800   98.6840 C.ar   75  PHE75      -0.0003
     22  CZ        30.9230   64.1040   99.4080 C.ar   75  PHE75      -0.0000
     23  N         36.5450   66.3480   96.3700 N.3    77  GLY77      -0.1225
     24  CA        36.7370   65.5700   95.1680 C.3    77  GLY77       0.1811
     25  C         37.3310   66.4460   94.0970 C.2    77  GLY77       0.2280
     26  O         36.7350   67.4440   93.6970 O.2    77  GLY77      -0.2866
     27  N         36.7280   75.4310   99.5110 N.3    99  ARG99      -0.1245
     28  CA        35.4880   74.7650   99.8830 C.3    99  ARG99       0.1563
     29  C         35.6720   73.8500  101.1020 C.2    99  ARG99       0.2260
     30  O         34.8180   73.8150  101.9880 O.2    99  ARG99      -0.2867
     31  CB        34.9300   73.9940   98.6850 C.3    99  ARG99       0.0307
     32  CG        33.4810   73.5650   98.8220 C.3    99  ARG99       0.0489
     33  CD        32.9130   73.0770   97.4800 C.3    99  ARG99       0.2205
     34  NE        33.5690   71.8610   97.0030 N.pl3  99  ARG99      -0.0865
     35  CZ        33.4270   71.3520   95.7780 C.cat  99  ARG99       0.5346
     36  NH1       32.6550   71.9530   94.8810 N.pl3  99  ARG99       0.1354
     37  NH2       34.0690   70.2400   95.4420 N.pl3  99  ARG99       0.1354
     38  N         41.4120   60.2710   90.6300 N.3   141  TYR141     -0.1241
     39  CA        40.5170   60.9530   91.5590 C.3   141  TYR141      0.1605
     40  C         41.2000   61.1140   92.9120 C.2   141  TYR141      0.2264
     41  O         41.8160   60.1800   93.4220 O.2   141  TYR141     -0.2867
     42  CB        39.1970   60.1890   91.7000 C.3   141  TYR141      0.0534
     43  CG        38.1530   60.8720   92.5540 C.ar  141  TYR141     -0.0201
     44  CD1       37.4610   61.9910   92.0910 C.ar  141  TYR141     -0.0009
     45  CD2       37.8440   60.3820   93.8280 C.ar  141  TYR141     -0.0009
     46  CE1       36.4920   62.6100   92.8780 C.ar  141  TYR141      0.0417
     47  CE2       36.8790   60.9890   94.6160 C.ar  141  TYR141      0.0417
     48  CZ        36.2080   62.0970   94.1410 C.ar  141  TYR141      0.1957
     49  OH        35.2550   62.6930   94.9400 O.3   141  TYR141     -0.2866
     50  N         40.6240   62.1630   96.8630 N.3   143  ARG143     -0.1245
     51  CA        39.5940   62.2040   97.9010 C.3   143  ARG143      0.1563
     52  C         40.1650   62.6690   99.2630 C.2   143  ARG143      0.2260
     53  O         40.5510   61.8480  100.1070 O.2   143  ARG143     -0.2867
     54  CB        38.8980   60.8330   97.9950 C.3   143  ARG143      0.0307
     55  CG        37.8910   60.6260   99.1530 C.3   143  ARG143      0.0489
     56  CD        36.8830   61.7660   99.3060 C.3   143  ARG143      0.2205
     57  NE        35.9610   61.8630   98.1740 N.pl3 143  ARG143     -0.0865
     58  CZ        34.8000   61.2200   98.0950 C.cat 143  ARG143      0.5346
     59  NH1       34.4080   60.4190   99.0830 N.pl3 143  ARG143      0.1354
     60  NH2       34.0240   61.3770   97.0260 N.pl3 143  ARG143      0.1354
     61  N         33.0160   58.1130   81.5680 N.3   173  TYR173     -0.1241
     62  CA        31.6040   57.7480   81.7420 C.3   173  TYR173      0.1605
     63  C         30.9120   57.5790   80.3870 C.2   173  TYR173      0.2264
     64  O         29.8260   56.9980   80.3020 O.2   173  TYR173     -0.2867
     65  CB        30.8650   58.7690   82.6250 C.3   173  TYR173      0.0534
     66  CG        31.1530   58.5990   84.1040 C.ar  173  TYR173     -0.0201
     67  CD1       32.4070   58.9130   84.6310 C.ar  173  TYR173     -0.0009
     68  CD2       30.1810   58.1080   84.9700 C.ar  173  TYR173     -0.0009
     69  CE1       32.6830   58.7410   85.9790 C.ar  173  TYR173      0.0417
     70  CE2       30.4480   57.9370   86.3260 C.ar  173  TYR173      0.0417
     71  CZ        31.7010   58.2560   86.8210 C.ar  173  TYR173      0.1957
     72  OH        31.9750   58.0940   88.1610 O.3   173  TYR173     -0.2866
     73  N         26.7020   58.3100   77.8880 N.3   180  ASN180     -0.1240
     74  CA        25.7120   57.3910   78.4430 C.3   180  ASN180      0.1653
     75  C         24.6960   58.1810   79.2690 C.2   180  ASN180      0.2266
     76  O         24.9360   58.4390   80.4500 O.2   180  ASN180     -0.2867
     77  CB        26.3840   56.2970   79.2850 C.3   180  ASN180      0.1155
     78  CG        27.1630   55.3050   78.4380 C.2   180  ASN180      0.2627
     79  OD1       28.3760   55.1350   78.6060 O.2   180  ASN180     -0.2716
     80  ND2       26.4710   54.6500   77.5120 N.am  180  ASN180     -0.0877
     81  N         21.3920   59.5020   81.4450 N.3   182  VAL182     -0.1245
     82  CA        20.7290   58.9570   82.6340 C.3   182  VAL182      0.1561
     83  C         19.2340   59.2400   82.6780 C.2   182  VAL182      0.2260
     84  O         18.7700   60.2820   82.2140 O.2   182  VAL182     -0.2867
     85  CB        21.3870   59.4310   83.9560 C.3   182  VAL182      0.0252
     86  CG1       22.7910   58.8530   84.0860 C.3   182  VAL182      0.0019
     87  CG2       21.3980   60.9620   84.0640 C.3   182  VAL182      0.0019
     88  N         30.0800   70.2000  101.6710 N.3   202  LYS202     -0.1245
     89  CA        30.3460   68.7880  101.4310 C.3   202  LYS202      0.1561
     90  C         30.5460   68.0150  102.7310 C.2   202  LYS202      0.2260
     91  O         31.5240   67.2820  102.8990 O.2   202  LYS202     -0.2867
     92  CB        31.5400   68.6290  100.4990 C.3   202  LYS202      0.0271
     93  CG        31.1570   68.2840   99.0800 C.3   202  LYS202      0.0035
     94  CD        32.2540   68.6960   98.1180 C.3   202  LYS202      0.0206
     95  CE        32.5700   67.5860   97.1610 C.3   202  LYS202      0.1093
     96  NZ        31.3520   67.2150   96.3910 N.3   202  LYS202     -0.1314
     97  N         24.6600   63.2200  102.5520 N.3   207  TYR207     -0.1241
     98  CA        24.7250   62.1250  101.5880 C.3   207  TYR207      0.1605
     99  C         24.1420   60.8100  102.0960 C.2   207  TYR207      0.2264
    100  O         23.5600   60.0550  101.3180 O.2   207  TYR207     -0.2867
    101  CB        26.1660   61.9620  101.0750 C.3   207  TYR207      0.0534
    102  CG        26.6730   63.2600  100.4690 C.ar  207  TYR207     -0.0201
    103  CD1       27.3420   64.2010  101.2510 C.ar  207  TYR207     -0.0009
    104  CD2       26.4270   63.5700   99.1290 C.ar  207  TYR207     -0.0009
    105  CE1       27.7650   65.4130  100.7180 C.ar  207  TYR207      0.0417
    106  CE2       26.8510   64.7760   98.5860 C.ar  207  TYR207      0.0417
    107  CZ        27.5190   65.6930   99.3910 C.ar  207  TYR207      0.1957
    108  OH        27.9410   66.8860   98.8650 O.3   207  TYR207     -0.2866
    109  N         18.9750   55.9150   87.0650 N.3   223  GLN223     -0.1231
    110  CA        20.3710   55.9000   87.5020 C.3   223  GLN223      0.1698
    111  C         20.6540   56.8900   88.6280 C.2   223  GLN223      0.2592
    112  O         21.5210   56.6500   89.4640 O.2   223  GLN223     -0.2718
    113  CB        21.3150   56.1620   86.3180 C.3   223  GLN223      0.0381
    114  CG        21.3600   55.0310   85.2810 C.3   223  GLN223      0.0905
    115  CD        20.0890   54.9390   84.4470 C.2   223  GLN223      0.2608
    116  OE1       19.6280   55.9350   83.8900 O.2   223  GLN223     -0.2717
    117  NE2       19.5160   53.7370   84.3610 N.am  223  GLN223     -0.0878
    118  N         19.9310   58.0040   88.6340 N.am  224  GLN224     -0.1979
    119  CA        20.1200   59.0490   89.6290 C.3   224  GLN224      0.1601
    120  C         18.7750   59.6260   90.0740 C.2   224  GLN224      0.2287
    121  O         17.7350   59.3980   89.4430 O.2   224  GLN224     -0.2864
    122  CB        21.0190   60.1700   89.0830 C.3   224  GLN224      0.0394
    123  CG        22.4940   59.8060   88.8810 C.3   224  GLN224      0.0908
    124  CD        23.2620   59.6500   90.1850 C.2   224  GLN224      0.2608
    125  OE1       23.7910   60.6200   90.7350 O.2   224  GLN224     -0.2717
    126  NE2       23.3460   58.4190   90.6760 N.am  224  GLN224     -0.0878
    127  N         24.4490   63.7280   92.7490 N.3   240  THR240     -0.1203
    128  CA        25.5350   64.4900   93.3680 C.3   240  THR240      0.1994
    129  C         26.1490   65.4670   92.3570 C.2   240  THR240      0.2617
    130  O         27.3360   65.8060   92.4460 O.2   240  THR240     -0.2717
    131  CB        26.6420   63.5490   93.8830 C.3   240  THR240      0.1784
    132  OG1       27.1120   62.7310   92.7980 O.3   240  THR240     -0.2211
    133  CG2       26.1280   62.6590   95.0150 C.3   240  THR240      0.0376
    134  N         25.3310   65.9090   91.3980 N.am  241  MET241     -0.1979
    135  CA        25.7660   66.8050   90.3180 C.3   241  MET241      0.1605
    136  C         24.8950   68.0550   90.2650 C.2   241  MET241      0.2287
    137  O         23.7220   68.0070   90.6300 O.2   241  MET241     -0.2864
    138  CB        25.6650   66.1020   88.9650 C.3   241  MET241      0.0413
    139  CG        26.6630   64.9780   88.7270 C.3   241  MET241      0.0598
    140  SD        26.3580   64.1040   87.1690 S.3   241  MET241     -0.1393
    141  CE        24.9570   63.0850   87.6250 C.3   241  MET241      0.0692
    142  N         29.6220   67.6700   87.4810 N.3   312  GLY312     -0.1210
    143  CA        30.3810   67.2790   88.6710 C.3   312  GLY312      0.1956
    144  C         31.7650   66.7960   88.3010 C.2   312  GLY312      0.2613
    145  O         32.0450   66.5440   87.1270 O.2   312  GLY312     -0.2717
    146  N         32.6330   66.6410   89.2990 N.am  313  THR313     -0.1938
    147  CA        34.0290   66.2800   89.0480 C.3   313  THR313      0.2028
    148  C         34.1940   64.9190   88.3580 C.2   313  THR313      0.2642
    149  O         34.9460   64.8150   87.3880 O.2   313  THR313     -0.2714
    150  CB        34.8760   66.3950   90.3330 C.3   313  THR313      0.1808
    151  OG1       34.9660   67.7720   90.6830 O.3   313  THR313     -0.2208
    152  CG2       36.3000   65.8620   90.1360 C.3   313  THR313      0.0379
    153  N         33.4720   63.9040   88.8390 N.am  314  ALA314     -0.1963
    154  CA        33.5760   62.5350   88.3090 C.3   314  ALA314      0.1728
    155  C         33.3480   62.4150   86.7960 C.2   314  ALA314      0.2616
    156  O         34.1770   61.8360   86.0910 O.2   314  ALA314     -0.2715
    157  CB        32.6420   61.5910   89.0620 C.3   314  ALA314      0.0334
    158  N         32.2450   62.9730   86.3000 N.am  315  CYS315     -0.1968
    159  CA        31.8790   62.8260   84.8860 C.3   315  CYS315      0.1712
    160  C         32.0470   64.0970   84.0290 C.2   315  CYS315      0.2296
    161  O         31.8840   64.0480   82.8030 O.2   315  CYS315     -0.2864
    162  CB        30.4400   62.3360   84.7840 C.3   315  CYS315      0.0983
    163  SG        29.2840   63.6520   85.0920 S.3   315  CYS315     -0.0798
    164  N         27.0260   65.0890   82.3320 N.3   318  CYS318     -0.1235
    165  CA        26.2060   63.9010   82.1900 C.3   318  CYS318      0.1677
    166  C         24.8030   64.2280   81.6580 C.2   318  CYS318      0.2270
    167  O         23.9640   64.7440   82.3990 O.2   318  CYS318     -0.2867
    168  CB        26.0970   63.1810   83.5310 C.3   318  CYS318      0.0956
    169  SG        25.2550   61.5900   83.4020 S.3   318  CYS318     -0.0801
@<TRIPOS>BOND
     1    80    78   am
     2    73    74    1
     3    78    79    2
     4    78    77    1
     5    74    75    1
     6    74    77    1
     7    75    76    2
     8    64    63    2
     9    63    62    1
    10    81    82    1
    11    61    62    1
    12   166   165    1
    13   166   167    2
    14    62    65    1
    15   165   164    1
    16   165   168    1
    17    84    83    2
    18    65    66    1
    19    82    83    1
    20    82    85    1
    21   161   160    2
    22   169   168    1
    23   116   115    2
    24    85    87    1
    25    85    86    1
    26   160   159    1
    27    66    67   ar
    28    66    68   ar
    29   117   115   am
    30   115   114    1
    31    67    69   ar
    32   162   159    1
    33   162   163    1
    34   159   158    1
    35    68    70   ar
    36   114   113    1
    37    69    71   ar
    38   156   155    2
    39   158   155   am
    40   113   110    1
    41    70    71   ar
    42   155   154    1
    43    71    72    1
    44   109   110    1
    45   145   144    2
    46   140   141    1
    47   140   139    1
    48   149   148    2
    49   142   143    1
    50   110   111    1
    51   144   143    1
    52   144   146   am
    53   154   153    1
    54   154   157    1
    55   148   153   am
    56   148   147    1
    57   111   118   am
    58   111   112    2
    59   118   119    1
    60   139   138    1
    61   123   122    1
    62   123   124    1
    63   138   135    1
    64   147   146    1
    65   147   150    1
    66   122   119    1
    67     1     2    1
    68   121   120    2
    69   119   120    1
    70     5     2    1
    71     5     6    1
    72     2     3    1
    73   152   150    1
    74   124   126   am
    75   124   125    2
    76   136   135    1
    77   136   137    2
    78   135   134    1
    79   150   151    1
    80    38    39    1
    81     7     6   ar
    82     7     9   ar
    83     6     8   ar
    84   134   129   am
    85     3     4    2
    86    39    42    1
    87    39    40    1
    88     9    11   ar
    89    42    43    1
    90    44    43   ar
    91    44    46   ar
    92     8    10   ar
    93   129   130    2
    94   129   128    1
    95    43    45   ar
    96   127   128    1
    97    11    10   ar
    98   132   131    1
    99    46    48   ar
   100    40    41    2
   101   128   131    1
   102    26    25    2
   103    45    47   ar
   104   131   133    1
   105    25    24    1
   106    48    47   ar
   107    48    49    1
   108    36    35    1
   109    24    23    1
   110    37    35    1
   111    35    34    2
   112    96    95    1
   113    50    51    1
   114    34    33    1
   115    60    58    1
   116    95    94    1
   117    33    32    1
   118    51    54    1
   119    51    52    1
   120    54    55    1
   121    58    57    2
   122    58    59    1
   123    94    93    1
   124    57    56    1
   125   106   104   ar
   126   106   107   ar
   127    21    19   ar
   128    21    22   ar
   129    31    32    1
   130    31    28    1
   131   108   107    1
   132    93    92    1
   133   104   102   ar
   134    55    56    1
   135    52    53    2
   136    19    17   ar
   137   107   105   ar
   138    22    20   ar
   139    27    28    1
   140    28    29    1
   141   102   101    1
   142   102   103   ar
   143    92    89    1
   144   105   103   ar
   145    17    16    1
   146    17    18   ar
   147    20    18   ar
   148    15    14    2
   149    14    13    1
   150   101    98    1
   151    29    30    2
   152   100    99    2
   153    89    88    1
   154    89    90    1
   155    16    13    1
   156    98    99    1
   157    98    97    1
   158    13    12    1
   159    90    91    2
