@<TRIPOS>MOLECULE
tmp/2abmA00.pdb
 69 64 0 0 0
SMALL
GASTEIGER

@<TRIPOS>ATOM
      1  N         16.1500    4.1640   44.6420 N.3     1  MET1       -0.1230
      2  CA        16.9940    4.6340   43.4980 C.3     1  MET1        0.1702
      3  C         16.4740    4.0560   42.1940 C.2     1  MET1        0.2592
      4  O         16.3300    4.7720   41.2030 O.2     1  MET1       -0.2718
      5  CB        18.4610    4.2170   43.6970 C.3     1  MET1        0.0401
      6  CG        19.4700    4.6920   42.6150 C.3     1  MET1        0.0596
      7  SD        19.8200    6.5040   42.5120 S.3     1  MET1       -0.1393
      8  CE        21.0240    6.7550   43.8630 C.3     1  MET1        0.0692
      9  N         16.1910    2.7590   42.1890 N.am    2  PHE2       -0.1976
     10  CA        15.6800    2.1330   40.9800 C.3     2  PHE2        0.1639
     11  C         14.5180    2.9690   40.4630 C.2     2  PHE2        0.2290
     12  O         14.5810    3.5090   39.3550 O.2     2  PHE2       -0.2864
     13  CB        15.2250    0.7010   41.2580 C.3     2  PHE2        0.0560
     14  CG        14.6680    0.0080   40.0520 C.ar    2  PHE2       -0.0200
     15  CD1       13.3110    0.0970   39.7480 C.ar    2  PHE2       -0.0042
     16  CD2       15.5030   -0.7210   39.2030 C.ar    2  PHE2       -0.0042
     17  CE1       12.7840   -0.5290   38.6050 C.ar    2  PHE2       -0.0003
     18  CE2       14.9930   -1.3510   38.0580 C.ar    2  PHE2       -0.0003
     19  CZ        13.6290   -1.2600   37.7570 C.ar    2  PHE2       -0.0000
     20  N         15.6270    5.8170   38.6940 N.3     5  LEU5       -0.1231
     21  CA        16.1830    5.5090   37.3810 C.3     5  LEU5        0.1693
     22  C         15.1440    5.0200   36.3780 C.2     5  LEU5        0.2591
     23  O         15.2020    5.3680   35.2000 O.2     5  LEU5       -0.2718
     24  CB        17.3020    4.4860   37.5070 C.3     5  LEU5        0.0284
     25  CG        18.5360    5.0390   38.2100 C.3     5  LEU5        0.0019
     26  CD1       19.6560    4.0180   38.1680 C.3     5  LEU5        0.0001
     27  CD2       18.9640    6.3050   37.5270 C.3     5  LEU5        0.0001
     28  N         14.1930    4.2120   36.8290 N.am    6  ALA6       -0.1980
     29  CA        13.1650    3.7390   35.9140 C.3     6  ALA6        0.1597
     30  C         12.3660    4.9560   35.4650 C.2     6  ALA6        0.2287
     31  O         12.0370    5.0970   34.2910 O.2     6  ALA6       -0.2864
     32  CB        12.2570    2.7390   36.6000 C.3     6  ALA6        0.0319
     33  N         14.1810    6.6690   32.9110 N.3     9  CYS9       -0.1235
     34  CA        14.3180    5.9410   31.6480 C.3     9  CYS9        0.1677
     35  C         13.0400    6.0000   30.8010 C.2     9  CYS9        0.2270
     36  O         13.0820    6.3760   29.6300 O.2     9  CYS9       -0.2867
     37  CB        14.6920    4.4880   31.9200 C.3     9  CYS9        0.0956
     38  SG        15.3780    3.6250   30.4830 S.3     9  CYS9       -0.0801
     39  N         25.4150   10.8520   37.4060 N.3    82  VAL82      -0.1231
     40  CA        25.7560    9.8560   36.3890 C.3    82  VAL82       0.1692
     41  C         24.6750    8.8230   36.0990 C.2    82  VAL82       0.2592
     42  O         24.3330    8.5760   34.9400 O.2    82  VAL82      -0.2718
     43  CB        27.0270    9.1100   36.7580 C.3    82  VAL82       0.0266
     44  CG1       27.1990    7.8850   35.8600 C.3    82  VAL82       0.0020
     45  CG2       28.1980   10.0430   36.6070 C.3    82  VAL82       0.0020
     46  N         24.1580    8.1940   37.1450 N.am   83  GLY83      -0.1957
     47  CA        23.1170    7.2070   36.9350 C.3    83  GLY83       0.1869
     48  C         22.0300    7.7930   36.0620 C.2    83  GLY83       0.2309
     49  O         21.7060    7.2580   34.9980 O.2    83  GLY83      -0.2863
     50  N         22.9260    7.9990   32.4120 N.3    86  ILE86      -0.1231
     51  CA        22.9190    6.7190   31.7320 C.3    86  ILE86       0.1692
     52  C         21.4730    6.3580   31.4590 C.2    86  ILE86       0.2591
     53  O         21.0630    6.2230   30.3060 O.2    86  ILE86      -0.2718
     54  CB        23.5370    5.6170   32.5820 C.3    86  ILE86       0.0266
     55  CG1       25.0330    5.8590   32.7320 C.3    86  ILE86       0.0019
     56  CG2       23.3150    4.2660   31.9260 C.3    86  ILE86       0.0020
     57  CD1       25.7320    4.7590   33.5020 C.3    86  ILE86       0.0001
     58  N         20.7040    6.2250   32.5320 N.am   87  ALA87      -0.1980
     59  CA        19.2920    5.8800   32.4390 C.3    87  ALA87       0.1597
     60  C         18.5580    6.6000   31.3110 C.2    87  ALA87       0.2287
     61  O         17.7560    5.9910   30.6010 O.2    87  ALA87      -0.2864
     62  CB        18.6140    6.1800   33.7510 C.3    87  ALA87       0.0319
     63  N         19.9930    5.3910   27.9350 N.3    90  VAL90      -0.1245
     64  CA        19.5620    4.0260   27.6760 C.3    90  VAL90       0.1561
     65  C         18.1170    4.0470   27.1930 C.2    90  VAL90       0.2260
     66  O         17.7780    3.4290   26.1820 O.2    90  VAL90      -0.2867
     67  CB        19.6640    3.1490   28.9460 C.3    90  VAL90       0.0252
     68  CG1       19.0310    1.8050   28.7010 C.3    90  VAL90       0.0019
     69  CG2       21.1110    2.9560   29.3260 C.3    90  VAL90       0.0019
@<TRIPOS>BOND
     1    66    65    2
     2    65    64    1
     3    64    63    1
     4    64    67    1
     5    68    67    1
     6    67    69    1
     7    36    35    2
     8    53    52    2
     9    38    37    1
    10    61    60    2
    11    35    34    1
    12    60    59    1
    13    52    51    1
    14    52    58   am
    15    34    37    1
    16    34    33    1
    17    51    50    1
    18    51    54    1
    19    56    54    1
    20    59    58    1
    21    59    62    1
    22    54    55    1
    23    55    57    1
    24    31    30    2
    25    42    41    2
    26    49    48    2
    27    23    22    2
    28    30    29    1
    29    44    43    1
    30    29    32    1
    31    29    28    1
    32    48    47    1
    33    41    40    1
    34    41    46   am
    35    22    28   am
    36    22    21    1
    37    40    43    1
    38    40    39    1
    39    45    43    1
    40    47    46    1
    41    21    24    1
    42    21    20    1
    43    24    25    1
    44    27    25    1
    45    19    18   ar
    46    19    17   ar
    47    18    16   ar
    48    26    25    1
    49    17    15   ar
    50    16    14   ar
    51    12    11    2
    52    15    14   ar
    53    14    13    1
    54    11    10    1
    55    10    13    1
    56    10     9    1
    57     4     3    2
    58     9     3   am
    59     3     2    1
    60     7     6    1
    61     7     8    1
    62     6     5    1
    63     2     5    1
    64     2     1    1
