@<TRIPOS>MOLECULE
tmp/2abmA02.pdb
 102 98 0 0 0
SMALL
GASTEIGER

@<TRIPOS>ATOM
      1  N         16.1910    2.7590   42.1890 N.3     2  PHE2       -0.1241
      2  CA        15.6800    2.1330   40.9800 C.3     2  PHE2        0.1605
      3  C         14.5180    2.9690   40.4630 C.2     2  PHE2        0.2264
      4  O         14.5810    3.5090   39.3550 O.2     2  PHE2       -0.2867
      5  CB        15.2250    0.7010   41.2580 C.3     2  PHE2        0.0534
      6  CG        14.6680    0.0080   40.0520 C.ar    2  PHE2       -0.0203
      7  CD1       13.3110    0.0970   39.7480 C.ar    2  PHE2       -0.0042
      8  CD2       15.5030   -0.7210   39.2030 C.ar    2  PHE2       -0.0042
      9  CE1       12.7840   -0.5290   38.6050 C.ar    2  PHE2       -0.0003
     10  CE2       14.9930   -1.3510   38.0580 C.ar    2  PHE2       -0.0003
     11  CZ        13.6290   -1.2600   37.7570 C.ar    2  PHE2       -0.0000
     12  N         14.1930    4.2120   36.8290 N.3     6  ALA6       -0.1245
     13  CA        13.1650    3.7390   35.9140 C.3     6  ALA6        0.1562
     14  C         12.3660    4.9560   35.4650 C.2     6  ALA6        0.2260
     15  O         12.0370    5.0970   34.2910 O.2     6  ALA6       -0.2867
     16  CB        12.2570    2.7390   36.6000 C.3     6  ALA6        0.0290
     17  N         14.1810    6.6690   32.9110 N.3     9  CYS9       -0.1221
     18  CA        14.3180    5.9410   31.6480 C.3     9  CYS9        0.1808
     19  C         13.0400    6.0000   30.8010 C.2     9  CYS9        0.2601
     20  O         13.0820    6.3760   29.6300 O.2     9  CYS9       -0.2717
     21  CB        14.6920    4.4880   31.9200 C.3     9  CYS9        0.0970
     22  SG        15.3780    3.6250   30.4830 S.3     9  CYS9       -0.0800
     23  N         11.9100    5.6110   31.3870 N.am   10  PHE10      -0.1976
     24  CA        10.6410    5.6690   30.6710 C.3    10  PHE10       0.1639
     25  C         10.3650    7.1180   30.2840 C.2    10  PHE10       0.2290
     26  O          9.8590    7.3970   29.1950 O.2    10  PHE10      -0.2864
     27  CB         9.5220    5.1210   31.5470 C.3    10  PHE10       0.0560
     28  CG         9.6810    3.6730   31.8660 C.ar   10  PHE10      -0.0200
     29  CD1        9.4180    2.7020   30.9050 C.ar   10  PHE10      -0.0042
     30  CD2       10.1330    3.2710   33.1180 C.ar   10  PHE10      -0.0042
     31  CE1        9.6050    1.3370   31.1920 C.ar   10  PHE10      -0.0003
     32  CE2       10.3260    1.9090   33.4170 C.ar   10  PHE10      -0.0003
     33  CZ        10.0610    0.9420   32.4520 C.ar   10  PHE10      -0.0000
     34  N         12.5620    7.7680   27.3080 N.3    13  PHE13      -0.1241
     35  CA        12.1310    6.8520   26.2580 C.3    13  PHE13       0.1605
     36  C         10.8820    7.4800   25.6510 C.2    13  PHE13       0.2264
     37  O         10.7460    7.5750   24.4270 O.2    13  PHE13      -0.2867
     38  CB        11.8230    5.4680   26.8500 C.3    13  PHE13       0.0534
     39  CG        11.0630    4.5630   25.9160 C.ar   13  PHE13      -0.0203
     40  CD1        9.6890    4.7550   25.7030 C.ar   13  PHE13      -0.0042
     41  CD2       11.7210    3.5400   25.2170 C.ar   13  PHE13      -0.0042
     42  CE1        8.9740    3.9510   24.8110 C.ar   13  PHE13      -0.0003
     43  CE2       11.0180    2.7260   24.3210 C.ar   13  PHE13      -0.0003
     44  CZ         9.6340    2.9320   24.1140 C.ar   13  PHE13      -0.0000
     45  N         19.9930    5.3910   27.9350 N.3    90  VAL90      -0.1245
     46  CA        19.5620    4.0260   27.6760 C.3    90  VAL90       0.1561
     47  C         18.1170    4.0470   27.1930 C.2    90  VAL90       0.2260
     48  O         17.7780    3.4290   26.1820 O.2    90  VAL90      -0.2867
     49  CB        19.6640    3.1490   28.9460 C.3    90  VAL90       0.0252
     50  CG1       19.0310    1.8050   28.7010 C.3    90  VAL90       0.0019
     51  CG2       21.1110    2.9560   29.3260 C.3    90  VAL90       0.0019
     52  N         16.5850    2.7030   23.4480 N.3    94  VAL94      -0.1245
     53  CA        15.5060    1.7260   23.3810 C.3    94  VAL94       0.1561
     54  C         14.3220    2.2970   22.5890 C.2    94  VAL94       0.2260
     55  O         13.5970    1.5740   21.8920 O.2    94  VAL94      -0.2867
     56  CB        15.0720    1.3560   24.8060 C.3    94  VAL94       0.0252
     57  CG1       13.7800    0.5920   24.7890 C.3    94  VAL94       0.0019
     58  CG2       16.1720    0.5520   25.4640 C.3    94  VAL94       0.0019
     59  N         15.2220    2.7010   18.8950 N.3    97  ALA97      -0.1231
     60  CA        15.3110    1.3240   18.4110 C.3    97  ALA97       0.1694
     61  C         13.9750    0.8650   17.8740 C.2    97  ALA97       0.2591
     62  O         13.8960    0.3500   16.7540 O.2    97  ALA97      -0.2718
     63  CB        15.7530    0.4080   19.5260 C.3    97  ALA97       0.0304
     64  N         12.9320    1.0500   18.6820 N.am   98  LEU98      -0.1980
     65  CA        11.5830    0.6680   18.2910 C.3    98  LEU98       0.1596
     66  C         11.1350    1.6130   17.1920 C.2    98  LEU98       0.2287
     67  O         10.6360    1.1750   16.1640 O.2    98  LEU98      -0.2864
     68  CB        10.6310    0.7410   19.4930 C.3    98  LEU98       0.0297
     69  CG        10.9040   -0.2240   20.6600 C.3    98  LEU98       0.0022
     70  CD1        9.7790   -0.1420   21.7040 C.3    98  LEU98       0.0001
     71  CD2       11.0110   -1.6470   20.1260 C.3    98  LEU98       0.0001
     72  N         12.7300    3.1790   14.9610 N.3   100  TYR100     -0.1227
     73  CA        13.3710    2.7430   13.7200 C.3   100  TYR100      0.1736
     74  C         12.6020    1.5600   13.1200 C.2   100  TYR100      0.2595
     75  O         12.3060    1.5260   11.9260 O.2   100  TYR100     -0.2718
     76  CB        14.8110    2.3210   14.0180 C.3   100  TYR100      0.0548
     77  CG        15.6630    2.0020   12.8040 C.ar  100  TYR100     -0.0200
     78  CD1       16.5760    2.9250   12.3050 C.ar  100  TYR100     -0.0009
     79  CD2       15.5900    0.7600   12.1830 C.ar  100  TYR100     -0.0009
     80  CE1       17.3950    2.6170   11.2270 C.ar  100  TYR100      0.0417
     81  CE2       16.4070    0.4450   11.1020 C.ar  100  TYR100      0.0417
     82  CZ        17.3050    1.3800   10.6320 C.ar  100  TYR100      0.1957
     83  OH        18.1080    1.0810    9.5580 O.3   100  TYR100     -0.2866
     84  N         12.2890    0.5860   13.9640 N.am  101  LEU101     -0.1980
     85  CA        11.5610   -0.6060   13.5420 C.3   101  LEU101      0.1596
     86  C         10.2140   -0.2120   12.9410 C.2   101  LEU101      0.2287
     87  O          9.8140   -0.6820   11.8720 O.2   101  LEU101     -0.2864
     88  CB        11.3300   -1.5270   14.7540 C.3   101  LEU101      0.0297
     89  CG        10.7520   -2.9350   14.5450 C.3   101  LEU101      0.0022
     90  CD1        9.3490   -2.9030   13.9290 C.3   101  LEU101      0.0001
     91  CD2       11.7000   -3.6840   13.6380 C.3   101  LEU101      0.0001
     92  N         21.3260    5.3950   15.0310 N.3   196  PHE196     -0.1241
     93  CA        20.6500    4.8170   13.8760 C.3   196  PHE196      0.1605
     94  C         20.8690    5.5940   12.5770 C.2   196  PHE196      0.2264
     95  O         20.5230    5.0490   11.5330 O.2   196  PHE196     -0.2867
     96  CB        19.1600    4.6770   14.1910 C.3   196  PHE196      0.0534
     97  CG        18.8850    3.8620   15.4270 C.ar  196  PHE196     -0.0203
     98  CD1       19.0450    4.4230   16.6950 C.ar  196  PHE196     -0.0042
     99  CD2       18.5170    2.5160   15.3280 C.ar  196  PHE196     -0.0042
    100  CE1       18.8460    3.6550   17.8570 C.ar  196  PHE196     -0.0003
    101  CE2       18.3150    1.7370   16.4840 C.ar  196  PHE196     -0.0003
    102  CZ        18.4810    2.3090   17.7500 C.ar  196  PHE196     -0.0000
@<TRIPOS>BOND
     1    83    82    1
     2    82    81   ar
     3    82    80   ar
     4    81    79   ar
     5    80    78   ar
     6    95    94    2
     7    87    86    2
     8    75    74    2
     9    79    77   ar
    10    78    77   ar
    11    94    93    1
    12    77    76    1
    13    86    85    1
    14    74    73    1
    15    74    84   am
    16    85    84    1
    17    85    88    1
    18    91    89    1
    19    73    76    1
    20    73    72    1
    21    93    96    1
    22    93    92    1
    23    90    89    1
    24    96    97    1
    25    89    88    1
    26    99    97   ar
    27    99   101   ar
    28    97    98   ar
    29    67    66    2
    30   101   102   ar
    31    98   100   ar
    32    62    61    2
    33    66    65    1
    34   102   100   ar
    35    61    60    1
    36    61    64   am
    37    65    64    1
    38    65    68    1
    39    60    59    1
    40    60    63    1
    41    68    69    1
    42    71    69    1
    43    69    70    1
    44    55    54    2
    45    54    53    1
    46    53    52    1
    47    53    56    1
    48    44    43   ar
    49    44    42   ar
    50    43    41   ar
    51    37    36    2
    52    57    56    1
    53    56    58    1
    54    42    40   ar
    55    41    39   ar
    56    36    35    1
    57    40    39   ar
    58    39    38    1
    59    48    47    2
    60    35    38    1
    61    35    34    1
    62    47    46    1
    63    46    45    1
    64    46    49    1
    65    50    49    1
    66    49    51    1
    67    26    25    2
    68    20    19    2
    69    25    24    1
    70    22    21    1
    71    24    23    1
    72    24    27    1
    73    19    23   am
    74    19    18    1
    75    29    31   ar
    76    29    28   ar
    77    31    33   ar
    78    27    28    1
    79    18    21    1
    80    18    17    1
    81    28    30   ar
    82    33    32   ar
    83    30    32   ar
    84    15    14    2
    85    14    13    1
    86    13    16    1
    87    13    12    1
    88    11    10   ar
    89    11     9   ar
    90    10     8   ar
    91     9     7   ar
    92     8     6   ar
    93     4     3    2
    94     7     6   ar
    95     6     5    1
    96     3     2    1
    97     2     5    1
    98     2     1    1
