@<TRIPOS>MOLECULE
tmp/2absA00.pdb
 161 154 0 0 0
SMALL
GASTEIGER

@<TRIPOS>ATOM
      1  N         15.9090  -19.5530 -108.4610 N.3   214  ASN214     -0.1225
      2  CA        14.5930  -18.9780 -108.7400 C.3   214  ASN214      0.1785
      3  C         14.6090  -18.2500 -110.0840 C.2   214  ASN214      0.2597
      4  O         15.5960  -18.2040 -110.7940 O.2   214  ASN214     -0.2718
      5  CB        14.0760  -18.1560 -107.5610 C.3   214  ASN214      0.1169
      6  CG        14.8560  -16.8660 -107.4080 C.2   214  ASN214      0.2627
      7  OD1       15.6250  -16.4280 -108.2260 O.2   214  ASN214     -0.2716
      8  ND2       14.5940  -16.2010 -106.3200 N.am  214  ASN214     -0.0877
      9  N         13.4580  -17.6910 -110.4510 N.am  215  GLU215     -0.1979
     10  CA        13.3190  -17.1120 -111.7730 C.3   215  GLU215      0.1602
     11  C         14.2800  -15.9700 -112.0100 C.2   215  GLU215      0.2287
     12  O         14.8870  -15.8820 -113.0760 O.2   215  GLU215     -0.2864
     13  CB        11.8540  -16.6020 -111.9190 C.3   215  GLU215      0.0415
     14  CG        10.8570  -17.7410 -111.8570 C.3   215  GLU215      0.1163
     15  CD         9.4580  -17.1410 -111.7300 C.2   215  GLU215      0.3649
     16  OE1        9.0990  -16.7620 -110.5710 O.co2 215  GLU215     -0.2457
     17  OE2        8.8040  -17.0530 -112.7960 O.co2 215  GLU215     -0.2457
     18  N         12.6330  -22.7750 -109.4600 N.3   259  THR259     -0.1203
     19  CA        11.4240  -22.4400 -108.7100 C.3   259  THR259      0.1994
     20  C         10.8640  -21.1250 -109.2760 C.2   259  THR259      0.2618
     21  O         11.5900  -20.2790 -109.7590 O.2   259  THR259     -0.2717
     22  CB        11.6900  -22.3340 -107.2100 C.3   259  THR259      0.1784
     23  OG1       12.6650  -21.3250 -106.9510 O.3   259  THR259     -0.2211
     24  CG2       12.1350  -23.6720 -106.6670 C.3   259  THR259      0.0376
     25  N          9.5370  -21.0100 -109.2560 N.am  260  ARG260     -0.1965
     26  CA         8.8690  -19.9070 -109.9360 C.3   260  ARG260      0.1729
     27  C          7.6660  -19.3880 -109.1590 C.2   260  ARG260      0.2617
     28  O          6.6220  -19.0590 -109.7260 O.2   260  ARG260     -0.2715
     29  CB         8.4190  -20.3400 -111.3360 C.3   260  ARG260      0.0348
     30  CG         9.5440  -20.7470 -112.2680 C.3   260  ARG260      0.0492
     31  CD         9.0190  -21.5060 -113.4740 C.3   260  ARG260      0.2205
     32  NE         8.4810  -20.6220 -114.4940 N.pl3 260  ARG260     -0.0865
     33  CZ         7.1900  -20.4810 -114.7650 C.cat 260  ARG260      0.5346
     34  NH1        6.2770  -21.1680 -114.0890 N.pl3 260  ARG260      0.1354
     35  NH2        6.8360  -19.6360 -115.7250 N.pl3 260  ARG260      0.1354
     36  N          7.8060  -19.3030 -107.8400 N.am  261  GLY261     -0.1940
     37  CA         6.7330  -18.7300 -107.0180 C.3   261  GLY261      0.2014
     38  C          5.5780  -19.6840 -106.9460 C.2   261  GLY261      0.2638
     39  O          5.7690  -20.8700 -106.6900 O.2   261  GLY261     -0.2714
     40  N          4.3710  -19.1400 -107.1770 N.am  262  HIS262     -0.1973
     41  CA         3.1690  -19.9380 -107.2010 C.3   262  HIS262      0.1656
     42  C          3.0370  -20.7210 -108.5030 C.2   262  HIS262      0.2291
     43  O          2.1680  -21.6000 -108.5610 O.2   262  HIS262     -0.2864
     44  CB         1.8940  -19.0990 -107.0500 C.3   262  HIS262      0.0771
     45  CG         1.5810  -18.2600 -108.2450 C.ar  262  HIS262      0.0820
     46  ND1        0.6210  -18.6080 -109.1690 N.ar  262  HIS262     -0.2267
     47  CD2        2.1190  -17.1100 -108.7150 C.ar  262  HIS262      0.1154
     48  CE1        0.5630  -17.6800 -110.1250 C.ar  262  HIS262      0.1986
     49  NE2        1.4630  -16.7510 -109.8700 N.ar  262  HIS262     -0.2212
     50  N          6.9410  -25.4600 -110.9310 N.3   265  VAL265     -0.1245
     51  CA         8.3890  -25.6520 -110.9740 C.3   265  VAL265      0.1561
     52  C          8.7340  -26.2650 -112.3530 C.2   265  VAL265      0.2260
     53  O          8.0440  -27.1510 -112.8180 O.2   265  VAL265     -0.2867
     54  CB         8.8600  -26.5520 -109.8230 C.3   265  VAL265      0.0252
     55  CG1       10.3370  -26.8460 -109.9220 C.3   265  VAL265      0.0019
     56  CG2        8.5300  -25.8810 -108.4950 C.3   265  VAL265      0.0019
     57  N          2.4440  -26.3630 -108.3980 N.3   283  VAL283     -0.1231
     58  CA         2.5400  -26.0310 -106.9830 C.3   283  VAL283      0.1678
     59  C          1.1350  -26.0590 -106.4270 C.2   283  VAL283      0.2434
     60  O          0.3170  -25.2320 -106.8210 O.2   283  VAL283     -0.2733
     61  CB         3.2330  -24.6960 -106.7740 C.3   283  VAL283      0.0265
     62  CG1        3.2130  -24.3850 -105.2710 C.3   283  VAL283      0.0020
     63  CG2        4.6810  -24.7530 -107.2450 C.3   283  VAL283      0.0020
     64  N          0.8050  -26.9680 -105.5090 N.am  284  PRO284     -0.2718
     65  CA        -0.5080  -26.9860 -104.8560 C.3   284  PRO284      0.1535
     66  C         -0.8130  -25.6210 -104.3010 C.2   284  PRO284      0.2598
     67  O          0.0280  -24.9530 -103.6710 O.2   284  PRO284     -0.2715
     68  CB        -0.3540  -28.0410 -103.7330 C.3   284  PRO284      0.0310
     69  CG         0.6310  -28.9850 -104.3700 C.3   284  PRO284      0.0237
     70  CD         1.6320  -28.0680 -105.0400 C.3   284  PRO284      0.0939
     71  N         -2.0620  -25.2240 -104.5150 N.am  285  VAL285     -0.1964
     72  CA        -2.3790  -23.8510 -104.1710 C.3   285  VAL285      0.1727
     73  C         -2.4080  -23.6360 -102.6630 C.2   285  VAL285      0.2616
     74  O         -2.9250  -24.4120 -101.8740 O.2   285  VAL285     -0.2715
     75  CB        -3.7350  -23.4480 -104.7560 C.3   285  VAL285      0.0290
     76  CG1       -4.3010  -22.2270 -104.0950 C.3   285  VAL285      0.0023
     77  CG2       -3.5250  -23.2260 -106.2410 C.3   285  VAL285      0.0023
     78  N         -1.8450  -22.5180 -102.2520 N.am  286  VAL286     -0.1977
     79  CA        -1.9130  -22.0290 -100.9000 C.3   286  VAL286      0.1596
     80  C         -2.5980  -20.6710 -100.9480 C.2   286  VAL286      0.2287
     81  O         -2.2520  -19.7320 -101.6570 O.2   286  VAL286     -0.2864
     82  CB        -0.4940  -21.8690 -100.3330 C.3   286  VAL286      0.0276
     83  CG1       -0.5950  -21.6280  -98.8390 C.3   286  VAL286      0.0022
     84  CG2        0.3130  -23.0930 -100.6950 C.3   286  VAL286      0.0022
     85  N         -0.7560  -17.1130  -96.3070 N.3   291  ILE291     -0.1245
     86  CA         0.6670  -16.8610  -96.4790 C.3   291  ILE291      0.1561
     87  C          1.0790  -15.6690  -95.6530 C.2   291  ILE291      0.2260
     88  O          0.5310  -14.5720  -95.7520 O.2   291  ILE291     -0.2867
     89  CB         0.9870  -16.5890  -97.9550 C.3   291  ILE291      0.0252
     90  CG1        0.6970  -17.7480  -98.8980 C.3   291  ILE291      0.0019
     91  CG2        2.4450  -16.1580  -98.1560 C.3   291  ILE291      0.0019
     92  CD1        0.8860  -17.4480 -100.3920 C.3   291  ILE291      0.0001
     93  N          7.0460  -15.0370  -98.1920 N.3   294  THR294     -0.1203
     94  CA         7.6990  -16.1790  -98.8430 C.3   294  THR294      0.1994
     95  C          9.1980  -16.2070  -98.5200 C.2   294  THR294      0.2618
     96  O          9.9220  -16.9680  -99.1180 O.2   294  THR294     -0.2717
     97  CB         7.4160  -16.2500 -100.3510 C.3   294  THR294      0.1784
     98  OG1        7.8810  -15.0390 -100.9380 O.3   294  THR294     -0.2211
     99  CG2        5.9290  -16.4090 -100.6930 C.3   294  THR294      0.0376
    100  N          9.6050  -15.4510  -97.4950 N.am  295  ASN295     -0.1960
    101  CA        11.0360  -15.4990  -97.1180 C.3   295  ASN295      0.1819
    102  C         11.4400  -16.8880  -96.7260 C.2   295  ASN295      0.2622
    103  O         10.7530  -17.5140  -95.9270 O.2   295  ASN295     -0.2715
    104  CB        11.2430  -14.4500  -96.0260 C.3   295  ASN295      0.1195
    105  CG        10.8670  -13.1040  -96.6530 C.2   295  ASN295      0.2630
    106  OD1       11.4900  -12.6680  -97.6230 O.2   295  ASN295     -0.2716
    107  ND2        9.8100  -12.4910  -96.1560 N.am  295  ASN295     -0.0877
    108  N         12.5380  -17.3830  -97.2940 N.am  296  GLY296     -0.1940
    109  CA        13.0300  -18.6900  -96.9340 C.3   296  GLY296      0.2014
    110  C         12.3310  -19.7950  -97.7100 C.2   296  GLY296      0.2639
    111  O         12.6530  -20.9960  -97.5350 O.2   296  GLY296     -0.2714
    112  N         11.3310  -19.5220  -98.5660 N.am  297  ALA297     -0.1963
    113  CA        10.6250  -20.5480  -99.3030 C.3   297  ALA297      0.1728
    114  C         11.5890  -21.3900 -100.1380 C.2   297  ALA297      0.2616
    115  O         11.4350  -22.6190 -100.1880 O.2   297  ALA297     -0.2715
    116  CB         9.5650  -19.9240 -100.2240 C.3   297  ALA297      0.0334
    117  N         12.5360  -20.7650 -100.8100 N.am  298  GLY298     -0.1955
    118  CA        13.4900  -21.5320 -101.6210 C.3   298  GLY298      0.1869
    119  C         14.3720  -22.3830 -100.7460 C.2   298  GLY298      0.2309
    120  O         14.7590  -23.4820 -101.1550 O.2   298  GLY298     -0.2863
    121  N         12.3010  -25.3690  -99.9300 N.3   301  PHE301     -0.1241
    122  CA        12.1800  -26.2000 -101.1380 C.3   301  PHE301      0.1605
    123  C         13.3970  -27.1160 -101.2480 C.2   301  PHE301      0.2264
    124  O         13.2870  -28.2960 -101.5240 O.2   301  PHE301     -0.2867
    125  CB        12.0050  -25.2430 -102.3460 C.3   301  PHE301      0.0534
    126  CG        11.9220  -26.0640 -103.6470 C.ar  301  PHE301     -0.0203
    127  CD1       10.6960  -26.4940 -104.1290 C.ar  301  PHE301     -0.0042
    128  CD2       13.0590  -26.3630 -104.3490 C.ar  301  PHE301     -0.0042
    129  CE1       10.6150  -27.2760 -105.2820 C.ar  301  PHE301     -0.0003
    130  CE2       12.9970  -27.1670 -105.4570 C.ar  301  PHE301     -0.0003
    131  CZ        11.7850  -27.5920 -105.9460 C.ar  301  PHE301     -0.0000
    132  N          8.0960  -28.6210 -102.6460 N.3   323  ASN323     -0.1240
    133  CA         6.9160  -27.7700 -102.5950 C.3   323  ASN323      0.1653
    134  C          6.1570  -27.8700 -101.3180 C.2   323  ASN323      0.2266
    135  O          5.6440  -26.8780 -100.7990 O.2   323  ASN323     -0.2867
    136  CB         5.9610  -28.0940 -103.8070 C.3   323  ASN323      0.1155
    137  CG         6.4140  -27.6530 -105.1660 C.2   323  ASN323      0.2627
    138  OD1        5.8950  -28.2040 -106.1950 O.2   323  ASN323     -0.2716
    139  ND2        7.2360  -26.6430 -105.2640 N.am  323  ASN323     -0.0877
    140  N          8.0560  -25.9650  -98.5780 N.3   326  ALA326     -0.1231
    141  CA         7.8680  -24.5210  -98.7940 C.3   326  ALA326      0.1694
    142  C          6.4390  -24.0980  -98.4510 C.2   326  ALA326      0.2591
    143  O          6.2690  -23.0140  -97.8420 O.2   326  ALA326     -0.2718
    144  CB         8.2000  -24.1430 -100.2050 C.3   326  ALA326      0.0304
    145  N          5.4730  -24.9270  -98.7940 N.am  327  GLN327     -0.1979
    146  CA         4.0850  -24.6450  -98.4560 C.3   327  GLN327      0.1601
    147  C          3.9140  -24.3750  -96.9610 C.2   327  GLN327      0.2287
    148  O          3.2450  -23.4210  -96.5770 O.2   327  GLN327     -0.2864
    149  CB         3.1820  -25.8040  -98.8890 C.3   327  GLN327      0.0394
    150  CG         1.7090  -25.5090  -98.6680 C.3   327  GLN327      0.0908
    151  CD         0.7810  -26.6580  -98.9870 C.2   327  GLN327      0.2608
    152  OE1       -0.1090  -26.5170  -99.8310 O.2   327  GLN327     -0.2717
    153  NE2        0.9920  -27.7870  -98.3190 N.am  327  GLN327     -0.0878
    154  N          5.8910  -20.9450  -95.6850 N.3   330  ILE330     -0.1245
    155  CA         5.3180  -19.6690  -96.0600 C.3   330  ILE330      0.1561
    156  C          4.0570  -19.3630  -95.2850 C.2   330  ILE330      0.2260
    157  O          3.6140  -18.1790  -95.3190 O.2   330  ILE330     -0.2867
    158  CB         5.0910  -19.5380  -97.5840 C.3   330  ILE330      0.0252
    159  CG1        3.9950  -20.3900  -98.1300 C.3   330  ILE330      0.0019
    160  CG2        6.4010  -19.7610  -98.3330 C.3   330  ILE330      0.0019
    161  CD1        3.7250  -20.2650  -99.6340 C.3   330  ILE330      0.0001
@<TRIPOS>BOND
     1    35    33    1
     2    33    32    2
     3    33    34    1
     4    32    31    1
     5    31    30    1
     6    12    11    2
     7    53    52    2
     8    17    15   ar
     9    52    51    1
    10    30    29    1
    11    11    10    1
    12    13    14    1
    13    13    10    1
    14    14    15    1
    15    10     9    1
    16    15    16   ar
    17    29    26    1
    18    51    50    1
    19    51    54    1
    20     4     3    2
    21     9     3   am
    22    48    49   ar
    23    48    46   ar
    24     3     2    1
    25    26    25    1
    26    26    27    1
    27    55    54    1
    28    49    47   ar
    29    54    56    1
    30    21    20    2
    31    28    27    2
    32    18    19    1
    33    20    25   am
    34    20    19    1
    35    46    45   ar
    36    27    36   am
    37     2     1    1
    38     2     5    1
    39    47    45   ar
    40    19    22    1
    41    43    42    2
    42    42    41    1
    43    57    58    1
    44    45    44    1
    45     7     6    2
    46    36    37    1
    47     5     6    1
    48     6     8   am
    49    63    61    1
    50    22    23    1
    51    22    24    1
    52    41    40    1
    53    41    44    1
    54    40    38   am
    55    37    38    1
    56    58    61    1
    57    58    59    1
    58    38    39    2
    59    60    59    2
    60    61    62    1
    61    59    64   am
    62    77    75    1
    63   138   137    2
    64   131   130   ar
    65   131   129   ar
    66    64    70    1
    67    64    65    1
    68   130   128   ar
    69   129   127   ar
    70   139   137   am
    71   137   136    1
    72    70    69    1
    73    65    66    1
    74    65    68    1
    75    75    72    1
    76    75    76    1
    77    71    66   am
    78    71    72    1
    79    69    68    1
    80   128   126   ar
    81    66    67    2
    82    72    73    1
    83   127   126   ar
    84   136   133    1
    85   126   125    1
    86    73    78   am
    87    73    74    2
    88   132   133    1
    89   133   134    1
    90   125   122    1
    91    78    79    1
    92    81    80    2
    93   118   117    1
    94   118   119    1
    95   124   123    2
    96   134   135    2
    97   123   122    1
    98   120   119    2
    99   122   121    1
   100    80    79    1
   101    98    97    1
   102    79    82    1
   103   117   114   am
   104    84    82    1
   105    99    97    1
   106    92    90    1
   107    97    94    1
   108    82    83    1
   109   116   113    1
   110   144   141    1
   111   115   114    2
   112   114   113    1
   113   152   151    2
   114   161   159    1
   115   113   112    1
   116    96    95    2
   117   151   150    1
   118   151   153   am
   119    90    89    1
   120   149   150    1
   121   149   146    1
   122    94    95    1
   123    94    93    1
   124   145   146    1
   125   145   142   am
   126   141   140    1
   127   141   142    1
   128   112   110   am
   129    95   100   am
   130   146   147    1
   131   142   143    2
   132   160   158    1
   133    91    89    1
   134   159   158    1
   135    89    86    1
   136   110   111    2
   137   110   109    1
   138   106   105    2
   139   158   155    1
   140   100   101    1
   141   108   109    1
   142   108   102   am
   143   101   102    1
   144   101   104    1
   145   147   148    2
   146   102   103    2
   147   105   107   am
   148   105   104    1
   149    86    85    1
   150    86    87    1
   151   155   154    1
   152   155   156    1
   153    88    87    2
   154   157   156    2
