@<TRIPOS>MOLECULE
tmp/2ac1A00.pdb
 178 175 0 0 0
SMALL
GASTEIGER

@<TRIPOS>ATOM
      1  N         72.9130  114.7240    5.3030 N.3   238  LYS238     -0.1231
      2  CA        74.1210  114.0540    4.8440 C.3   238  LYS238      0.1693
      3  C         74.6020  112.9690    5.8060 C.2   238  LYS238      0.2592
      4  O         75.8000  112.7520    5.9590 O.2   238  LYS238     -0.2718
      5  CB        75.2300  115.0850    4.6150 C.3   238  LYS238      0.0285
      6  CG        75.4260  115.4540    3.1650 C.3   238  LYS238      0.0035
      7  CD        74.1200  115.7850    2.4700 C.3   238  LYS238      0.0206
      8  CE        74.3540  116.0450    0.9870 C.3   238  LYS238      0.1093
      9  NZ        73.0820  116.2760    0.2590 N.3   238  LYS238     -0.1314
     10  N         73.6550  112.3010    6.4560 N.am  239  HIS239     -0.1976
     11  CA        73.9740  111.2220    7.3720 C.3   239  HIS239      0.1656
     12  C         73.1130  109.9980    7.0200 C.2   239  HIS239      0.2291
     13  O         72.0660  110.1230    6.3620 O.2   239  HIS239     -0.2864
     14  CB        73.7390  111.6790    8.8210 C.3   239  HIS239      0.0771
     15  CG        74.5670  112.8700    9.2050 C.ar  239  HIS239      0.0820
     16  ND1       74.0920  113.8880   10.0030 N.ar  239  HIS239     -0.2267
     17  CD2       75.8240  113.2330    8.8450 C.ar  239  HIS239      0.1154
     18  CE1       75.0150  114.8270   10.1130 C.ar  239  HIS239      0.1986
     19  NE2       76.0760  114.4540    9.4200 N.ar  239  HIS239     -0.2212
     20  N         82.0670  111.1020    9.1920 N.3   273  LYS273     -0.1231
     21  CA        81.8490  111.3090    7.7610 C.3   273  LYS273      0.1693
     22  C         81.5260  109.9500    7.1150 C.2   273  LYS273      0.2592
     23  O         82.4220  109.1390    6.8840 O.2   273  LYS273     -0.2718
     24  CB        83.1030  111.9070    7.1250 C.3   273  LYS273      0.0285
     25  CG        82.8540  112.4830    5.7490 C.3   273  LYS273      0.0035
     26  CD        81.9900  113.7220    5.8620 C.3   273  LYS273      0.0206
     27  CE        82.8320  114.9180    6.2500 C.3   273  LYS273      0.1093
     28  NZ        83.7720  115.2800    5.1480 N.3   273  LYS273     -0.1314
     29  N         80.2540  109.7220    6.7950 N.am  274  TYR274     -0.1962
     30  CA        79.8270  108.4300    6.2630 C.3   274  TYR274      0.1771
     31  C         78.4930  108.6280    5.5300 C.2   274  TYR274      0.2619
     32  O         77.5570  109.1950    6.1000 O.2   274  TYR274     -0.2715
     33  CB        79.6450  107.4830    7.4630 C.3   274  TYR274      0.0574
     34  CG        79.5120  106.0040    7.1680 C.ar  274  TYR274     -0.0198
     35  CD1       80.6460  105.2000    7.0120 C.ar  274  TYR274     -0.0009
     36  CD2       78.2530  105.4040    7.0710 C.ar  274  TYR274     -0.0009
     37  CE1       80.5370  103.8360    6.7680 C.ar  274  TYR274      0.0417
     38  CE2       78.1270  104.0380    6.8240 C.ar  274  TYR274      0.0417
     39  CZ        79.2720  103.2570    6.6700 C.ar  274  TYR274      0.1957
     40  OH        79.1520  101.9080    6.3930 O.3   274  TYR274     -0.2866
     41  N         78.3850  108.1510    4.2910 N.am  275  TYR275     -0.1974
     42  CA        77.1450  108.3420    3.5320 C.3   275  TYR275      0.1639
     43  C         76.9110  107.3300    2.4010 C.2   275  TYR275      0.2290
     44  O         77.8500  106.6850    1.9290 O.2   275  TYR275     -0.2864
     45  CB        77.1290  109.7600    2.9500 C.3   275  TYR275      0.0560
     46  CG        75.7510  110.2430    2.5580 C.ar  275  TYR275     -0.0198
     47  CD1       74.7880  110.5150    3.5250 C.ar  275  TYR275     -0.0009
     48  CD2       75.4060  110.4210    1.2210 C.ar  275  TYR275     -0.0009
     49  CE1       73.5130  110.9530    3.1720 C.ar  275  TYR275      0.0417
     50  CE2       74.1340  110.8580    0.8560 C.ar  275  TYR275      0.0417
     51  CZ        73.1950  111.1210    1.8380 C.ar  275  TYR275      0.1957
     52  OH        71.9340  111.5460    1.4860 O.3   275  TYR275     -0.2866
     53  N         80.5830  105.2150    2.0030 N.3   293  TRP293     -0.1241
     54  CA        81.4010  106.2300    1.3390 C.3   293  TRP293      0.1605
     55  C         81.7610  107.4000    2.2490 C.2   293  TRP293      0.2264
     56  O         80.8950  107.9740    2.9140 O.2   293  TRP293     -0.2867
     57  CB        80.6680  106.7460    0.0880 C.3   293  TRP293      0.0550
     58  CG        81.1870  108.0570   -0.4690 C.ar  293  TRP293      0.0003
     59  CD1       82.4900  108.3750   -0.7650 C.ar  293  TRP293      0.0946
     60  CD2       80.4140  109.2310   -0.7680 C.ar  293  TRP293      0.0152
     61  NE1       82.5690  109.6720   -1.2200 N.ar  293  TRP293     -0.2442
     62  CE2       81.3130  110.2180   -1.2340 C.ar  293  TRP293      0.0810
     63  CE3       79.0500  109.5420   -0.6890 C.ar  293  TRP293      0.0012
     64  CZ2       80.8900  111.4960   -1.6130 C.ar  293  TRP293      0.0191
     65  CZ3       78.6260  110.8140   -1.0660 C.ar  293  TRP293      0.0001
     66  CH2       79.5460  111.7770   -1.5250 C.ar  293  TRP293      0.0015
     67  N         83.4730  111.0410    1.9830 N.3   295  ASN295     -0.1225
     68  CA        84.0090  112.0950    1.1230 C.3   295  ASN295      0.1785
     69  C         85.1620  112.8530    1.8050 C.2   295  ASN295      0.2597
     70  O         85.4850  112.6060    2.9660 O.2   295  ASN295     -0.2718
     71  CB        82.8820  113.0590    0.6860 C.3   295  ASN295      0.1169
     72  CG        82.3820  113.9320    1.8160 C.2   295  ASN295      0.2627
     73  OD1       82.4610  113.5440    2.9740 O.2   295  ASN295     -0.2716
     74  ND2       81.8530  115.1130    1.5180 N.am  295  ASN295     -0.0877
     75  N         85.7950  113.7630    1.0760 N.am  296  GLU296     -0.1965
     76  CA        86.9170  114.5200    1.6260 C.3   296  GLU296      0.1733
     77  C         86.4560  115.6150    2.5710 C.2   296  GLU296      0.2617
     78  O         85.4030  116.2210    2.3650 O.2   296  GLU296     -0.2715
     79  CB        87.7060  115.1800    0.5010 C.3   296  GLU296      0.0429
     80  CG        88.1980  114.2300   -0.5380 C.3   296  GLU296      0.1163
     81  CD        89.1360  113.2040    0.0410 C.2   296  GLU296      0.3649
     82  OE1       90.1080  113.6130    0.7140 O.co2 296  GLU296     -0.2457
     83  OE2       88.9040  111.9960   -0.1730 O.co2 296  GLU296     -0.2457
     84  N         87.2470  115.8770    3.6060 N.am  297  SER297     -0.1936
     85  CA        86.9270  116.9560    4.5370 C.3   297  SER297      0.2055
     86  C         87.8230  118.1430    4.1830 C.2   297  SER297      0.2643
     87  O         87.8420  119.1540    4.8810 O.2   297  SER297     -0.2714
     88  CB        87.1700  116.5340    5.9850 C.3   297  SER297      0.2130
     89  OG        86.1290  115.6940    6.4410 O.3   297  SER297     -0.2179
     90  N         88.5820  117.9960    3.1010 N.am  298  SER298     -0.1949
     91  CA        89.4720  119.0510    2.6290 C.3   298  SER298      0.1924
     92  C         88.7090  119.9350    1.6420 C.2   298  SER298      0.2314
     93  O         87.5980  119.5960    1.2330 O.2   298  SER298     -0.2863
     94  CB        90.6880  118.4310    1.9370 C.3   298  SER298      0.2116
     95  OG        90.2870  117.5000    0.9470 O.3   298  SER298     -0.2180
     96  N         77.3110  115.0610   19.6650 N.3   392  GLN392     -0.1231
     97  CA        78.2160  115.9180   18.9040 C.3   392  GLN392      0.1698
     98  C         78.4130  117.2760   19.5660 C.2   392  GLN392      0.2592
     99  O         79.5400  117.7550   19.6810 O.2   392  GLN392     -0.2718
    100  CB        77.6980  116.1050   17.4720 C.3   392  GLN392      0.0381
    101  CG        78.5550  117.0240   16.6040 C.3   392  GLN392      0.0905
    102  CD        78.1300  117.0170   15.1470 C.2   392  GLN392      0.2608
    103  OE1       76.9440  117.0360   14.8380 O.2   392  GLN392     -0.2717
    104  NE2       79.1010  117.0010   14.2470 N.am  392  GLN392     -0.0878
    105  N         77.3180  117.8950   19.9990 N.am  393  LEU393     -0.1980
    106  CA        77.4050  119.2030   20.6430 C.3   393  LEU393      0.1596
    107  C         78.1640  119.1210   21.9680 C.2   393  LEU393      0.2287
    108  O         78.8910  120.0460   22.3280 O.2   393  LEU393     -0.2864
    109  CB        76.0050  119.7960   20.8510 C.3   393  LEU393      0.0297
    110  CG        75.2460  120.1390   19.5560 C.3   393  LEU393      0.0022
    111  CD1       73.8860  120.7480   19.8800 C.3   393  LEU393      0.0001
    112  CD2       76.0670  121.1130   18.7320 C.3   393  LEU393      0.0001
    113  N         81.6330  119.1020   21.1400 N.3   396  SER396     -0.1202
    114  CA        82.0180  120.4040   20.6150 C.3   396  SER396      0.2020
    115  C         82.1910  121.4510   21.7090 C.2   396  SER396      0.2618
    116  O         83.1780  122.1840   21.7140 O.2   396  SER396     -0.2717
    117  CB        80.9790  120.9180   19.6090 C.3   396  SER396      0.2103
    118  OG        80.8800  120.0530   18.4960 O.3   396  SER396     -0.2182
    119  N         81.2330  121.5290   22.6280 N.am  397  LYS397     -0.1979
    120  CA        81.3060  122.5180   23.6960 C.3   397  LYS397      0.1596
    121  C         82.2970  122.1310   24.7850 C.2   397  LYS397      0.2287
    122  O         82.8110  122.9930   25.4960 O.2   397  LYS397     -0.2864
    123  CB        79.9200  122.7520   24.2940 C.3   397  LYS397      0.0298
    124  CG        78.9370  123.3270   23.2930 C.3   397  LYS397      0.0038
    125  CD        77.5840  123.5970   23.9210 C.3   397  LYS397      0.0206
    126  CE        76.6050  124.1320   22.8820 C.3   397  LYS397      0.1093
    127  NZ        75.2470  124.4060   23.4510 N.3   397  LYS397     -0.1314
    128  N         93.9110  125.7290    7.5770 N.3   454  GLU454     -0.1245
    129  CA        92.5820  126.0910    8.0490 C.3   454  GLU454      0.1567
    130  C         91.4320  125.7900    7.1030 C.2   454  GLU454      0.2260
    131  O         90.2860  125.7080    7.5410 O.2   454  GLU454     -0.2867
    132  CB        92.5410  127.5740    8.4180 C.3   454  GLU454      0.0388
    133  CG        93.6880  128.0130    9.2930 C.3   454  GLU454      0.1160
    134  CD        93.4110  129.3330    9.9790 C.2   454  GLU454      0.3649
    135  OE1       92.6540  129.3320   10.9770 O.co2 454  GLU454     -0.2457
    136  OE2       93.9440  130.3690    9.5140 O.co2 454  GLU454     -0.2457
    137  N         90.6330  123.1010    5.8570 N.3   456  ASN456     -0.1225
    138  CA        90.0690  121.7740    6.1000 C.3   456  ASN456      0.1785
    139  C         88.8780  121.8540    7.0470 C.2   456  ASN456      0.2597
    140  O         88.8760  122.6500    7.9830 O.2   456  ASN456     -0.2718
    141  CB        91.1110  120.8490    6.7130 C.3   456  ASN456      0.1169
    142  CG        92.2300  120.5350    5.7630 C.2   456  ASN456      0.2627
    143  OD1       93.3970  120.8250    6.0420 O.2   456  ASN456     -0.2716
    144  ND2       91.8920  119.9340    4.6340 N.am  456  ASN456     -0.0877
    145  N         87.8660  121.0270    6.7890 N.am  457  ASP457     -0.1974
    146  CA        86.6650  120.9690    7.6270 C.3   457  ASP457      0.1709
    147  C         87.0230  120.1760    8.8800 C.2   457  ASP457      0.2293
    148  O         87.1490  118.9540    8.8330 O.2   457  ASP457     -0.2864
    149  CB        85.5250  120.2790    6.8630 C.3   457  ASP457      0.1436
    150  CG        84.3090  119.9790    7.7470 C.2   457  ASP457      0.3671
    151  OD1       84.1670  120.6150    8.8190 O.co2 457  ASP457     -0.2456
    152  OD2       83.4900  119.1130    7.3590 O.co2 457  ASP457     -0.2456
    153  N         85.2190  119.7820   11.6740 N.3   459  THR459     -0.1203
    154  CA        84.0370  119.5090   12.4930 C.3   459  THR459      0.1994
    155  C         84.3230  118.3370   13.4430 C.2   459  THR459      0.2619
    156  O         84.9640  117.3630   13.0520 O.2   459  THR459     -0.2717
    157  CB        82.8430  119.0910   11.6230 C.3   459  THR459      0.1784
    158  OG1       82.5240  120.1360   10.7010 O.3   459  THR459     -0.2211
    159  CG2       81.6350  118.7830   12.4890 C.3   459  THR459      0.0376
    160  N         83.8450  118.4370   14.6800 N.am  460  THR460     -0.1938
    161  CA        84.0430  117.3800   15.6640 C.3   460  THR460      0.2028
    162  C         82.7910  116.5010   15.7510 C.2   460  THR460      0.2642
    163  O         81.6620  116.9880   15.6360 O.2   460  THR460     -0.2714
    164  CB        84.3990  117.9770   17.0560 C.3   460  THR460      0.1808
    165  OG1       85.7380  118.4880   17.0100 O.3   460  THR460     -0.2208
    166  CG2       84.3090  116.9190   18.1610 C.3   460  THR460      0.0379
    167  N         83.0110  115.2020   15.9370 N.am  461  TYR461     -0.1973
    168  CA        81.9320  114.2330   16.0040 C.3   461  TYR461      0.1639
    169  C         81.8000  113.6020   17.3820 C.2   461  TYR461      0.2290
    170  O         82.7620  113.5360   18.1550 O.2   461  TYR461     -0.2864
    171  CB        82.1530  113.1150   14.9760 C.3   461  TYR461      0.0560
    172  CG        82.4400  113.6090   13.5800 C.ar  461  TYR461     -0.0198
    173  CD1       81.5760  114.5060   12.9430 C.ar  461  TYR461     -0.0009
    174  CD2       83.5810  113.1880   12.8940 C.ar  461  TYR461     -0.0009
    175  CE1       81.8430  114.9720   11.6550 C.ar  461  TYR461      0.0417
    176  CE2       83.8620  113.6430   11.6050 C.ar  461  TYR461      0.0417
    177  CZ        82.9890  114.5370   10.9890 C.ar  461  TYR461      0.1957
    178  OH        83.2620  114.9890    9.7160 O.3   461  TYR461     -0.2866
@<TRIPOS>BOND
     1    64    66   ar
     2    64    62   ar
     3    66    65   ar
     4    62    61   ar
     5    62    60   ar
     6    61    59   ar
     7    65    63   ar
     8    60    63   ar
     9    60    58   ar
    10    59    58   ar
    11    80    81    1
    12    80    79    1
    13    58    57    1
    14    83    81   ar
    15    81    82   ar
    16    57    54    1
    17     9     8    1
    18    79    76    1
    19    71    68    1
    20    71    72    1
    21    50    48   ar
    22    50    51   ar
    23    95    94    1
    24     8     7    1
    25    75    76    1
    26    75    69   am
    27    68    69    1
    28    68    67    1
    29    48    46   ar
    30    93    92    2
    31    54    53    1
    32    54    55    1
    33    52    51    1
    34    74    72   am
    35    76    77    1
    36    92    91    1
    37    69    70    2
    38    72    73    2
    39    51    49   ar
    40    44    43    2
    41    94    91    1
    42    55    56    2
    43    78    77    2
    44    43    42    1
    45     7     6    1
    46    46    45    1
    47    46    47   ar
    48    77    84   am
    49    91    90    1
    50    45    42    1
    51    90    86   am
    52     6     5    1
    53    49    47   ar
    54    42    41    1
    55    84    85    1
    56    86    85    1
    57    86    87    2
    58    41    31   am
    59    85    88    1
    60     5     2    1
    61   144   142   am
    62     2     1    1
    63     2     3    1
    64    28    27    1
    65    31    32    2
    66    31    30    1
    67    25    26    1
    68    25    24    1
    69   142   143    2
    70   142   141    1
    71     3     4    2
    72     3    10   am
    73   137   138    1
    74    26    27    1
    75    88    89    1
    76   138   141    1
    77   138   139    1
    78    30    29    1
    79    30    33    1
    80    13    12    2
    81    40    39    1
    82    10    11    1
    83    39    37   ar
    84    39    38   ar
    85    37    35   ar
    86   145   139   am
    87   145   146    1
    88    29    22   am
    89    38    36   ar
    90   149   146    1
    91   149   150    1
    92    23    22    2
    93    35    34   ar
    94    12    11    1
    95   139   140    2
    96    36    34   ar
    97   130   131    2
    98   130   129    1
    99    22    21    1
   100    24    21    1
   101    34    33    1
   102   152   150   ar
   103    11    14    1
   104   128   129    1
   105   146   147    1
   106   150   151   ar
   107    21    20    1
   108   129   132    1
   109   132   133    1
   110    14    15    1
   111   148   147    2
   112    17    15   ar
   113    17    19   ar
   114    15    16   ar
   115   133   134    1
   116    19    18   ar
   117   136   134   ar
   118   178   177    1
   119   134   135   ar
   120    16    18   ar
   121   158   157    1
   122   177   176   ar
   123   177   175   ar
   124   176   174   ar
   125   157   159    1
   126   157   154    1
   127   175   173   ar
   128   153   154    1
   129   154   155    1
   130   174   172   ar
   131   173   172   ar
   132   156   155    2
   133   155   160   am
   134   172   171    1
   135   104   102   am
   136   160   161    1
   137   103   102    2
   138   171   168    1
   139   102   101    1
   140   163   162    2
   141   161   162    1
   142   161   164    1
   143   162   167   am
   144   167   168    1
   145   168   169    1
   146   101   100    1
   147   165   164    1
   148   164   166    1
   149   169   170    2
   150   100    97    1
   151   118   117    1
   152   112   110    1
   153    97    98    1
   154    97    96    1
   155   110   111    1
   156   110   109    1
   157    98    99    2
   158    98   105   am
   159   117   114    1
   160   105   106    1
   161   114   113    1
   162   114   115    1
   163   106   109    1
   164   106   107    1
   165   115   116    2
   166   115   119   am
   167   107   108    2
   168   119   120    1
   169   126   127    1
   170   126   125    1
   171   124   125    1
   172   124   123    1
   173   120   123    1
   174   120   121    1
   175   121   122    2
