@<TRIPOS>MOLECULE
tmp/2aceA00.pdb
 160 162 0 0 0
SMALL
GASTEIGER

@<TRIPOS>ATOM
      1  N          0.1580   74.2590   65.2880 N.3    81  TRP81      -0.1241
      2  CA        -0.0450   73.0410   64.5230 C.3    81  TRP81       0.1605
      3  C         -1.4330   72.4770   64.6890 C.2    81  TRP81       0.2264
      4  O         -1.7590   71.4590   64.0880 O.2    81  TRP81      -0.2867
      5  CB         0.9160   71.9560   64.9850 C.3    81  TRP81       0.0550
      6  CG         2.3250   72.3480   64.9040 C.ar   81  TRP81       0.0003
      7  CD1        3.1380   72.6650   65.9430 C.ar   81  TRP81       0.0946
      8  CD2        3.1010   72.5290   63.7110 C.ar   81  TRP81       0.0152
      9  NE1        4.3700   73.0460   65.4790 N.ar   81  TRP81      -0.2442
     10  CE2        4.3750   72.9690   64.1080 C.ar   81  TRP81       0.0810
     11  CE3        2.8390   72.3710   62.3490 C.ar   81  TRP81       0.0012
     12  CZ2        5.3890   73.2550   63.1850 C.ar   81  TRP81       0.0191
     13  CZ3        3.8370   72.6510   61.4460 C.ar   81  TRP81       0.0001
     14  CH2        5.0930   73.0870   61.8640 C.ar   81  TRP81       0.0015
     15  N          2.0800   67.2560   56.9710 N.3   114  GLY114     -0.1210
     16  CA         2.4940   66.1570   57.8270 C.3   114  GLY114      0.1956
     17  C          1.5540   65.9890   59.0120 C.2   114  GLY114      0.2612
     18  O          0.4570   66.5450   59.0320 O.2   114  GLY114     -0.2717
     19  N          1.9920   65.1970   59.9890 N.am  115  GLY115     -0.1942
     20  CA         1.2070   64.9490   61.1900 C.3   115  GLY115      0.2014
     21  C          1.0710   63.5030   61.6400 C.2   115  GLY115      0.2639
     22  O          0.0580   63.1280   62.1920 O.2   115  GLY115     -0.2714
     23  N          2.0580   62.6700   61.3720 N.am  116  GLY116     -0.1954
     24  CA         1.9770   61.2830   61.7820 C.3   116  GLY116      0.1869
     25  C          0.7810   60.5410   61.2360 C.2   116  GLY116      0.2309
     26  O          0.4370   59.4590   61.7160 O.2   116  GLY116     -0.2863
     27  N         -2.0300   61.0040   61.7980 N.3   118  TYR118     -0.1227
     28  CA        -3.1490   61.1360   62.7460 C.3   118  TYR118      0.1736
     29  C         -3.6660   62.5750   62.7870 C.2   118  TYR118      0.2596
     30  O         -4.7120   62.8280   63.3740 O.2   118  TYR118     -0.2718
     31  CB        -2.7920   60.6750   64.1780 C.3   118  TYR118      0.0548
     32  CG        -1.8370   61.5670   64.9220 C.ar  118  TYR118     -0.0200
     33  CD1       -2.2830   62.6800   65.6260 C.ar  118  TYR118     -0.0009
     34  CD2       -0.4790   61.3260   64.8790 C.ar  118  TYR118     -0.0009
     35  CE1       -1.3830   63.5320   66.2600 C.ar  118  TYR118      0.0417
     36  CE2        0.4130   62.1610   65.4990 C.ar  118  TYR118      0.0417
     37  CZ        -0.0400   63.2580   66.1860 C.ar  118  TYR118      0.1957
     38  OH         0.8970   64.0710   66.7830 O.3   118  TYR118     -0.2866
     39  N         -2.9340   63.5140   62.1890 N.am  119  SER119     -0.1952
     40  CA        -3.3680   64.9070   62.1870 C.3   119  SER119      0.1924
     41  C         -2.8590   65.7090   60.9840 C.2   119  SER119      0.2314
     42  O         -2.1790   65.1840   60.1170 O.2   119  SER119     -0.2863
     43  CB        -2.9260   65.5990   63.4890 C.3   119  SER119      0.2116
     44  OG        -1.5100   65.6530   63.6080 O.3   119  SER119     -0.2180
     45  N          1.6110   76.9750   56.5510 N.3   127  TYR127     -0.1241
     46  CA         1.4100   76.3480   55.2370 C.3   127  TYR127      0.1605
     47  C          0.8170   77.3590   54.2740 C.2   127  TYR127      0.2264
     48  O          0.3120   76.9930   53.2270 O.2   127  TYR127     -0.2867
     49  CB         0.4770   75.1350   55.3210 C.3   127  TYR127      0.0534
     50  CG         0.9780   74.0140   56.2010 C.ar  127  TYR127     -0.0201
     51  CD1        2.3320   73.8550   56.4770 C.ar  127  TYR127     -0.0009
     52  CD2        0.0920   73.1100   56.7650 C.ar  127  TYR127     -0.0009
     53  CE1        2.7840   72.8280   57.2800 C.ar  127  TYR127      0.0417
     54  CE2        0.5370   72.0930   57.5650 C.ar  127  TYR127      0.0417
     55  CZ         1.8800   71.9530   57.8120 C.ar  127  TYR127      0.1957
     56  OH         2.3130   70.8830   58.5410 O.3   127  TYR127     -0.2866
     57  N          6.1010   67.1910   54.3990 N.3   196  GLU196     -0.1231
     58  CA         6.9890   67.0240   55.5340 C.3   196  GLU196      0.1699
     59  C          6.4510   65.9610   56.4370 C.2   196  GLU196      0.2593
     60  O          5.2560   65.8830   56.6640 O.2   196  GLU196     -0.2718
     61  CB         7.0830   68.3410   56.2950 C.3   196  GLU196      0.0402
     62  CG         8.1310   68.3580   57.3970 C.3   196  GLU196      0.1161
     63  CD         7.5670   68.1290   58.7970 C.2   196  GLU196      0.3649
     64  OE1        6.3370   68.1730   58.9970 O.co2 196  GLU196     -0.2457
     65  OE2        8.3700   67.9120   59.7220 O.co2 196  GLU196     -0.2457
     66  N          7.3300   65.1050   56.9150 N.am  197  SER197     -0.1938
     67  CA         6.9640   64.0380   57.8400 C.3   197  SER197      0.2055
     68  C          5.9630   63.0800   57.2460 C.2   197  SER197      0.2642
     69  O          6.3060   62.3860   56.3210 O.2   197  SER197     -0.2714
     70  CB         6.4970   64.6040   59.1910 C.3   197  SER197      0.2130
     71  OG         6.7380   63.6900   60.2610 O.3   197  SER197     -0.2179
     72  N          4.7590   62.9640   57.7740 N.am  198  ALA198     -0.1977
     73  CA         3.8160   62.0210   57.1880 C.3   198  ALA198      0.1597
     74  C          3.5410   62.4530   55.7290 C.2   198  ALA198      0.2287
     75  O          3.0980   61.6580   54.8950 O.2   198  ALA198     -0.2864
     76  CB         2.5490   61.9820   57.9980 C.3   198  ALA198      0.0319
     77  N          7.4190   54.2210   61.3340 N.3   230  TRP230     -0.1241
     78  CA         6.1120   54.6430   61.7870 C.3   230  TRP230      0.1605
     79  C          5.1710   54.9000   60.6150 C.2   230  TRP230      0.2264
     80  O          3.9930   55.1680   60.8210 O.2   230  TRP230     -0.2867
     81  CB         6.2560   55.9380   62.5660 C.3   230  TRP230      0.0550
     82  CG         7.0870   56.9700   61.8710 C.ar  230  TRP230      0.0003
     83  CD1        8.4240   57.1780   62.0100 C.ar  230  TRP230      0.0946
     84  CD2        6.6320   57.9190   60.9210 C.ar  230  TRP230      0.0152
     85  NE1        8.8320   58.2010   61.1990 N.ar  230  TRP230     -0.2442
     86  CE2        7.7490   58.6710   60.5140 C.ar  230  TRP230      0.0810
     87  CE3        5.3840   58.2000   60.3580 C.ar  230  TRP230      0.0012
     88  CZ2        7.6630   59.6760   59.5730 C.ar  230  TRP230      0.0191
     89  CZ3        5.2980   59.1960   59.4220 C.ar  230  TRP230      0.0001
     90  CH2        6.4330   59.9260   59.0340 C.ar  230  TRP230      0.0015
     91  N          6.8370   57.9120   68.8710 N.3   285  PHE285     -0.1241
     92  CA         6.9320   58.0000   67.4100 C.3   285  PHE285      0.1605
     93  C          6.2700   56.8440   66.6800 C.2   285  PHE285      0.2264
     94  O          6.8280   56.2980   65.7450 O.2   285  PHE285     -0.2867
     95  CB         8.3880   58.1190   66.9560 C.3   285  PHE285      0.0534
     96  CG         8.6100   59.0880   65.8150 C.ar  285  PHE285     -0.0203
     97  CD1        7.6840   59.2250   64.7890 C.ar  285  PHE285     -0.0042
     98  CD2        9.7480   59.8990   65.7880 C.ar  285  PHE285     -0.0042
     99  CE1        7.8910   60.1590   63.7710 C.ar  285  PHE285     -0.0003
    100  CE2        9.9480   60.8240   64.7690 C.ar  285  PHE285     -0.0003
    101  CZ         9.0220   60.9510   63.7710 C.ar  285  PHE285     -0.0000
    102  N          2.1920   55.8590   65.4420 N.3   287  PHE287     -0.1241
    103  CA         0.8460   56.3590   65.3990 C.3   287  PHE287      0.1605
    104  C          0.0040   55.1760   65.0450 C.2   287  PHE287      0.2264
    105  O          0.5220   54.1910   64.5600 O.2   287  PHE287     -0.2867
    106  CB         0.7930   57.4950   64.4340 C.3   287  PHE287      0.0534
    107  CG         1.9590   58.4250   64.5720 C.ar  287  PHE287     -0.0203
    108  CD1        1.9760   59.3820   65.5470 C.ar  287  PHE287     -0.0042
    109  CD2        3.0460   58.3210   63.7310 C.ar  287  PHE287     -0.0042
    110  CE1        3.0510   60.2240   65.6850 C.ar  287  PHE287     -0.0003
    111  CE2        4.1440   59.1710   63.8610 C.ar  287  PHE287     -0.0003
    112  CZ         4.1450   60.1230   64.8390 C.ar  287  PHE287     -0.0000
    113  N         11.2130   66.6690   69.7900 N.3   327  PHE327     -0.1227
    114  CA         9.7610   66.8320   69.9360 C.3   327  PHE327      0.1736
    115  C          8.9830   65.6450   70.5160 C.2   327  PHE327      0.2595
    116  O          8.0390   65.8300   71.2850 O.2   327  PHE327     -0.2718
    117  CB         9.1340   67.2290   68.5990 C.3   327  PHE327      0.0547
    118  CG         7.7780   67.8120   68.7320 C.ar  327  PHE327     -0.0202
    119  CD1        6.6480   66.9840   68.7960 C.ar  327  PHE327     -0.0042
    120  CD2        7.6160   69.1960   68.8290 C.ar  327  PHE327     -0.0042
    121  CE1        5.3640   67.5230   68.9580 C.ar  327  PHE327     -0.0003
    122  CE2        6.3360   69.7600   68.9950 C.ar  327  PHE327     -0.0003
    123  CZ         5.2090   68.9190   69.0600 C.ar  327  PHE327     -0.0000
    124  N          9.3660   64.4270   70.1640 N.am  328  PHE328     -0.1976
    125  CA         8.6410   63.2480   70.6270 C.3   328  PHE328      0.1639
    126  C          9.0740   62.7970   71.9920 C.2   328  PHE328      0.2290
    127  O          8.3670   62.0430   72.6400 O.2   328  PHE328     -0.2864
    128  CB         8.8180   62.1200   69.6190 C.3   328  PHE328      0.0560
    129  CG         8.4130   62.5120   68.2580 C.ar  328  PHE328     -0.0200
    130  CD1        9.2770   63.2630   67.4670 C.ar  328  PHE328     -0.0042
    131  CD2        7.1150   62.2880   67.8250 C.ar  328  PHE328     -0.0042
    132  CE1        8.8550   63.8050   66.2760 C.ar  328  PHE328     -0.0003
    133  CE2        6.6710   62.8220   66.6300 C.ar  328  PHE328     -0.0003
    134  CZ         7.5410   63.5890   65.8500 C.ar  328  PHE328     -0.0000
    135  N         11.7410   69.1650   64.4890 N.3   437  HIS437     -0.1226
    136  CA        10.9540   68.5530   63.4480 C.3   437  HIS437      0.1752
    137  C          9.9420   69.6130   63.1320 C.2   437  HIS437      0.2597
    138  O          9.4410   70.2490   64.0520 O.2   437  HIS437     -0.2718
    139  CB        10.2180   67.3860   64.0490 C.3   437  HIS437      0.0759
    140  CG         9.5170   66.5130   63.0680 C.ar  437  HIS437      0.0818
    141  ND1       10.1920   65.7490   62.1420 N.ar  437  HIS437     -0.2268
    142  CD2        8.2210   66.1310   62.9900 C.ar  437  HIS437      0.1154
    143  CE1        9.3540   64.9090   61.5620 C.ar  437  HIS437      0.1986
    144  NE2        8.1510   65.1220   62.0570 N.ar  437  HIS437     -0.2212
    145  N          9.7440   69.8730   61.8350 N.am  438  GLY438     -0.1942
    146  CA         8.7580   70.8380   61.3880 C.3   438  GLY438      0.2014
    147  C          9.2020   72.2700   61.3690 C.2   438  GLY438      0.2638
    148  O          8.4610   73.1600   60.9480 O.2   438  GLY438     -0.2714
    149  N         10.4330   72.5240   61.7540 N.am  439  TYR439     -0.1973
    150  CA        10.8380   73.8920   61.7650 C.3   439  TYR439      0.1639
    151  C         11.5670   74.4130   60.5640 C.2   439  TYR439      0.2290
    152  O         12.1070   75.5120   60.5990 O.2   439  TYR439     -0.2864
    153  CB        11.4530   74.2480   63.1140 C.3   439  TYR439      0.0560
    154  CG        10.3400   74.3970   64.1300 C.ar  439  TYR439     -0.0198
    155  CD1        9.7210   73.2810   64.6760 C.ar  439  TYR439     -0.0009
    156  CD2        9.8150   75.6330   64.4180 C.ar  439  TYR439     -0.0009
    157  CE1        8.6120   73.3960   65.4620 C.ar  439  TYR439      0.0417
    158  CE2        8.7070   75.7560   65.1960 C.ar  439  TYR439      0.0417
    159  CZ         8.1120   74.6340   65.7130 C.ar  439  TYR439      0.1957
    160  OH         6.9900   74.7670   66.4720 O.3   439  TYR439     -0.2866
@<TRIPOS>BOND
     1    48    47    2
     2    47    46    1
     3    57    58    1
     4    75    74    2
     5    46    49    1
     6    46    45    1
     7    49    50    1
     8    58    61    1
     9    58    59    1
    10    74    73    1
    11    50    51   ar
    12    50    52   ar
    13    61    62    1
    14    69    68    2
    15    59    60    2
    16    59    66   am
    17    51    53   ar
    18    52    54   ar
    19    66    67    1
    20    15    16    1
    21    73    72    1
    22    73    76    1
    23    68    72   am
    24    68    67    1
    25    53    55   ar
    26    62    63    1
    27    54    55   ar
    28    55    56    1
    29    16    17    1
    30    67    70    1
    31    63    64   ar
    32    63    65   ar
    33    17    18    2
    34    17    19   am
    35    90    89   ar
    36    90    88   ar
    37    70    71    1
    38    89    87   ar
    39    88    86   ar
    40    19    20    1
    41    42    41    2
    42    87    84   ar
    43    86    84   ar
    44    86    85   ar
    45   151   152    2
    46   151   150    1
    47    79    80    2
    48    79    78    1
    49    84    82   ar
    50   148   147    2
    51    41    40    1
    52    20    21    1
    53    85    83   ar
    54    25    26    2
    55    25    24    1
    56    77    78    1
    57   147   146    1
    58   147   149   am
    59    23    21   am
    60    23    24    1
    61   146   145    1
    62    13    14   ar
    63    13    11   ar
    64   143   144   ar
    65   143   141   ar
    66    21    22    2
    67   149   150    1
    68   150   153    1
    69    78    81    1
    70    27    28    1
    71   145   137   am
    72    14    12   ar
    73    82    83   ar
    74    82    81    1
    75   144   142   ar
    76   141   140   ar
    77    40    39    1
    78    40    43    1
    79    39    29   am
    80    11     8   ar
    81    28    29    1
    82    28    31    1
    83    29    30    2
    84   142   140   ar
    85   140   139    1
    86   153   154    1
    87   137   136    1
    88   137   138    2
    89    12    10   ar
    90   136   139    1
    91   136   135    1
    92    43    44    1
    93     8    10   ar
    94     8     6   ar
    95   109   111   ar
    96   109   107   ar
    97    99   101   ar
    98    99    97   ar
    99   101   100   ar
   100   111   112   ar
   101     4     3    2
   102    10     9   ar
   103   154   156   ar
   104   154   155   ar
   105    31    32    1
   106   156   158   ar
   107   106   107    1
   108   106   103    1
   109     2     3    1
   110     2     5    1
   111     2     1    1
   112   105   104    2
   113   107   108   ar
   114   155   157   ar
   115   100    98   ar
   116    97    96   ar
   117   112   110   ar
   118    34    32   ar
   119    34    36   ar
   120     6     5    1
   121     6     7   ar
   122    32    33   ar
   123   104   103    1
   124   158   159   ar
   125   103   102    1
   126   157   159   ar
   127     9     7   ar
   128    36    37   ar
   129   108   110   ar
   130    33    35   ar
   131   159   160    1
   132    94    93    2
   133    98    96   ar
   134    96    95    1
   135   134   132   ar
   136   134   133   ar
   137    37    35   ar
   138    37    38    1
   139   132   130   ar
   140   133   131   ar
   141    93    92    1
   142    95    92    1
   143    92    91    1
   144   130   129   ar
   145   131   129   ar
   146   129   128    1
   147   117   118    1
   148   117   114    1
   149   118   119   ar
   150   118   120   ar
   151   119   121   ar
   152   120   122   ar
   153   121   123   ar
   154   122   123   ar
   155   128   125    1
   156   113   114    1
   157   114   115    1
   158   124   115   am
   159   124   125    1
   160   115   116    2
   161   125   126    1
   162   126   127    2
