@<TRIPOS>MOLECULE
tmp/2achA01.pdb
 101 96 0 0 0
SMALL
GASTEIGER

@<TRIPOS>ATOM
      1  N         51.5080   71.9840   55.0010 N.3    77  LEU77      -0.1231
      2  CA        50.9540   72.6420   56.1730 C.3    77  LEU77       0.1693
      3  C         49.6970   73.3770   55.7120 C.2    77  LEU77       0.2591
      4  O         48.6880   73.4380   56.4080 O.2    77  LEU77      -0.2718
      5  CB        51.9770   73.6280   56.7710 C.3    77  LEU77       0.0284
      6  CG        53.2960   73.0890   57.3790 C.3    77  LEU77       0.0019
      7  CD1       54.1250   74.2380   57.9860 C.3    77  LEU77       0.0001
      8  CD2       53.0200   72.0260   58.4490 C.3    77  LEU77       0.0001
      9  N         49.7500   73.8750   54.4920 N.am   78  ARG78      -0.1980
     10  CA        48.6430   74.6040   53.9120 C.3    78  ARG78       0.1597
     11  C         47.4310   73.6940   53.7290 C.2    78  ARG78       0.2287
     12  O         46.3180   74.0030   54.1780 O.2    78  ARG78      -0.2864
     13  CB        49.0650   75.1540   52.5440 C.3    78  ARG78       0.0334
     14  CG        48.2300   76.3270   52.0510 C.3    78  ARG78       0.0492
     15  CD        48.5080   77.5780   52.8710 C.3    78  ARG78       0.2205
     16  NE        49.9100   77.9820   52.7880 N.pl3  78  ARG78      -0.0865
     17  CZ        50.4940   78.8500   53.6080 C.cat  78  ARG78       0.5346
     18  NH1       49.8040   79.4150   54.5900 N.pl3  78  ARG78       0.1354
     19  NH2       51.7760   79.1520   53.4490 N.pl3  78  ARG78       0.1354
     20  N         46.2260   71.8800   57.3480 N.3    81  ASN81      -0.1240
     21  CA        45.9420   72.7280   58.4880 C.3    81  ASN81       0.1653
     22  C         44.4980   73.2190   58.4230 C.2    81  ASN81       0.2266
     23  O         44.2440   74.4170   58.4160 O.2    81  ASN81      -0.2867
     24  CB        46.9240   73.8960   58.5140 C.3    81  ASN81       0.1155
     25  CG        46.9500   74.6010   59.8410 C.2    81  ASN81       0.2627
     26  OD1       46.6390   74.0220   60.8910 O.2    81  ASN81      -0.2716
     27  ND2       47.3770   75.8560   59.8070 N.am   81  ASN81      -0.0877
     28  N         44.8210   70.5320   63.4400 N.3    90  SER90      -0.1202
     29  CA        45.3810   71.8380   63.7330 C.3    90  SER90       0.2020
     30  C         46.8950   71.6880   63.7970 C.2    90  SER90       0.2619
     31  O         47.3920   70.7150   64.3430 O.2    90  SER90      -0.2717
     32  CB        44.7930   72.3420   65.0710 C.3    90  SER90       0.2103
     33  OG        45.1680   73.6790   65.4050 O.3    90  SER90      -0.2182
     34  N         47.6200   72.6030   63.1800 N.am   91  MET91      -0.1965
     35  CA        49.0870   72.5500   63.1970 C.3    91  MET91       0.1736
     36  C         49.6310   73.9320   63.4930 C.2    91  MET91       0.2617
     37  O         49.1970   74.8880   62.8790 O.2    91  MET91      -0.2715
     38  CB        49.6250   72.1010   61.8410 C.3    91  MET91       0.0427
     39  CG        49.4140   70.6320   61.5750 C.3    91  MET91       0.0599
     40  SD        50.0750   70.1290   59.9870 S.3    91  MET91      -0.1393
     41  CE        48.5730   69.7460   59.1470 C.3    91  MET91       0.0692
     42  N         50.5800   74.0550   64.4110 N.am   92  GLY92      -0.1940
     43  CA        51.0960   75.3800   64.7030 C.3    92  GLY92       0.2014
     44  C         52.5920   75.3990   64.8930 C.2    92  GLY92       0.2638
     45  O         53.1630   74.4290   65.3910 O.2    92  GLY92      -0.2714
     46  N         53.2180   76.4980   64.4940 N.am   93  ASN93      -0.1972
     47  CA        54.6550   76.6620   64.6210 C.3    93  ASN93       0.1688
     48  C         54.9220   78.0350   65.1750 C.2    93  ASN93       0.2292
     49  O         54.3420   79.0010   64.7190 O.2    93  ASN93      -0.2864
     50  CB        55.3450   76.5440   63.2590 C.3    93  ASN93       0.1181
     51  CG        55.3990   75.1110   62.7390 C.2    93  ASN93       0.2629
     52  OD1       55.7070   74.1900   63.4800 O.2    93  ASN93      -0.2716
     53  ND2       55.1350   74.9320   61.4510 N.am   93  ASN93      -0.0877
     54  N         56.7350   78.3030   56.8710 N.3   115  TYR115     -0.1227
     55  CA        56.1690   77.4660   57.9100 C.3   115  TYR115      0.1736
     56  C         55.0650   78.0600   58.7430 C.2   115  TYR115      0.2596
     57  O         54.5830   77.3930   59.6660 O.2   115  TYR115     -0.2718
     58  CB        57.2750   76.9110   58.8130 C.3   115  TYR115      0.0548
     59  CG        58.1820   75.9730   58.0850 C.ar  115  TYR115     -0.0200
     60  CD1       59.1070   76.4490   57.1600 C.ar  115  TYR115     -0.0009
     61  CD2       58.1130   74.6050   58.2930 C.ar  115  TYR115     -0.0009
     62  CE1       59.9430   75.5950   56.4580 C.ar  115  TYR115      0.0417
     63  CE2       58.9580   73.7280   57.5800 C.ar  115  TYR115      0.0417
     64  CZ        59.8630   74.2400   56.6660 C.ar  115  TYR115      0.1957
     65  OH        60.6660   73.3990   55.9270 O.3   115  TYR115     -0.2866
     66  N         54.6940   79.3070   58.4430 N.am  116  GLY116     -0.1957
     67  CA        53.6450   79.9980   59.1880 C.3   116  GLY116      0.1869
     68  C         53.9470   80.2020   60.6730 C.2   116  GLY116      0.2309
     69  O         53.0330   80.2430   61.5170 O.2   116  GLY116     -0.2863
     70  N         54.9420   81.8600   64.2300 N.3   118  GLU118     -0.1245
     71  CA        54.6040   83.0650   64.9730 C.3   118  GLU118      0.1567
     72  C         55.7930   83.3950   65.8730 C.2   118  GLU118      0.2260
     73  O         56.3090   82.5120   66.5480 O.2   118  GLU118     -0.2867
     74  CB        53.4040   82.7980   65.8700 C.3   118  GLU118      0.0388
     75  CG        52.2000   82.2560   65.1670 C.3   118  GLU118      0.1160
     76  CD        51.2180   81.6770   66.1550 C.2   118  GLU118      0.3649
     77  OE1       50.9900   82.3190   67.2120 O.co2 118  GLU118     -0.2457
     78  OE2       50.7010   80.5670   65.8850 O.co2 118  GLU118     -0.2457
     79  N         44.4990   72.3100   72.8210 N.3   143  ARG143     -0.1245
     80  CA        43.2320   72.2250   73.5310 C.3   143  ARG143      0.1563
     81  C         43.3370   71.4990   74.8790 C.2   143  ARG143      0.2260
     82  O         42.5060   70.6530   75.2160 O.2   143  ARG143     -0.2867
     83  CB        42.1650   71.5890   72.6360 C.3   143  ARG143      0.0307
     84  CG        41.6100   72.5070   71.5210 C.3   143  ARG143      0.0489
     85  CD        42.5720   72.7170   70.3400 C.3   143  ARG143      0.2205
     86  NE        41.9390   72.4140   69.0500 N.pl3 143  ARG143     -0.0865
     87  CZ        41.8620   73.2450   68.0080 C.cat 143  ARG143      0.5346
     88  NH1       42.3740   74.4710   68.0690 N.pl3 143  ARG143      0.1354
     89  NH2       41.2590   72.8460   66.8920 N.pl3 143  ARG143      0.1354
     90  N         53.1020   72.0260   67.2560 N.3   164  TYR164     -0.1241
     91  CA        52.0570   71.2180   67.8790 C.3   164  TYR164      0.1605
     92  C         51.1140   70.7650   66.7890 C.2   164  TYR164      0.2264
     93  O         51.0500   71.3700   65.7210 O.2   164  TYR164     -0.2867
     94  CB        51.3060   71.9810   68.9710 C.3   164  TYR164      0.0534
     95  CG        50.2790   72.9530   68.4680 C.ar  164  TYR164     -0.0201
     96  CD1       49.0280   72.5120   68.0360 C.ar  164  TYR164     -0.0009
     97  CD2       50.5760   74.3070   68.3490 C.ar  164  TYR164     -0.0009
     98  CE1       48.1100   73.3870   67.4820 C.ar  164  TYR164      0.0417
     99  CE2       49.6530   75.2020   67.7910 C.ar  164  TYR164      0.0417
    100  CZ        48.4290   74.7290   67.3530 C.ar  164  TYR164      0.1957
    101  OH        47.5450   75.5810   66.7280 O.3   164  TYR164     -0.2866
@<TRIPOS>BOND
     1    14    13    1
     2    14    15    1
     3    13    10    1
     4    16    15    1
     5    16    17    2
     6    19    17    1
     7    17    18    1
     8    11    10    1
     9    11    12    2
    10    10     9    1
    11     9     3   am
    12     1     2    1
    13     3     2    1
    14     3     4    2
    15    65    64    1
    16     2     5    1
    17    62    64   ar
    18    62    60   ar
    19    64    63   ar
    20     5     6    1
    21    54    55    1
    22    60    59   ar
    23    20    21    1
    24     6     7    1
    25     6     8    1
    26    63    61   ar
    27    55    56    1
    28    55    58    1
    29    59    61   ar
    30    59    58    1
    31    23    22    2
    32    22    21    1
    33    66    56   am
    34    66    67    1
    35    21    24    1
    36    24    25    1
    37    56    57    2
    38    41    40    1
    39    67    68    1
    40    27    25   am
    41    25    26    2
    42    40    39    1
    43    68    69    2
    44    53    51   am
    45    39    38    1
    46    38    35    1
    47    51    50    1
    48    51    52    2
    49    37    36    2
    50    34    35    1
    51    34    30   am
    52    35    36    1
    53    50    47    1
    54    28    29    1
    55    36    42   am
    56    29    30    1
    57    29    32    1
    58    30    31    2
    59    70    71    1
    60    42    43    1
    61    46    47    1
    62    46    44   am
    63    47    48    1
    64    43    44    1
    65    49    48    2
    66    44    45    2
    67    71    74    1
    68    71    72    1
    69    32    33    1
    70    75    74    1
    71    75    76    1
    72    93    92    2
    73    72    73    2
    74    78    76   ar
    75    76    77   ar
    76   101   100    1
    77    92    91    1
    78    89    87    1
    79    90    91    1
    80   100    98   ar
    81   100    99   ar
    82    98    96   ar
    83    99    97   ar
    84    91    94    1
    85    87    88    1
    86    87    86    2
    87    96    95   ar
    88    97    95   ar
    89    95    94    1
    90    86    85    1
    91    85    84    1
    92    84    83    1
    93    83    80    1
    94    79    80    1
    95    80    81    1
    96    81    82    2
