@<TRIPOS>MOLECULE
tmp/2aclH00.pdb
 245 233 0 0 0
SMALL
GASTEIGER

@<TRIPOS>ATOM
      1  N         36.5000   35.0210   73.7690 N.3    51  PHE51      -0.1241
      2  CA        35.6810   34.3680   72.7630 C.3    51  PHE51       0.1605
      3  C         34.2920   34.9790   72.7450 C.2    51  PHE51       0.2264
      4  O         33.8220   35.4300   71.7050 O.2    51  PHE51      -0.2867
      5  CB        35.5950   32.8710   73.0620 C.3    51  PHE51       0.0534
      6  CG        34.7970   32.0850   72.0570 C.ar   51  PHE51      -0.0203
      7  CD1       33.7020   31.3310   72.4600 C.ar   51  PHE51      -0.0042
      8  CD2       35.1380   32.0920   70.7140 C.ar   51  PHE51      -0.0042
      9  CE1       32.9570   30.5970   71.5370 C.ar   51  PHE51      -0.0003
     10  CE2       34.3930   31.3570   69.7880 C.ar   51  PHE51      -0.0003
     11  CZ        33.3020   30.6110   70.2040 C.ar   51  PHE51      -0.0000
     12  N         34.3590   38.3930   71.1630 N.3    54  PHE54      -0.1227
     13  CA        34.4320   38.3870   69.7180 C.3    54  PHE54       0.1736
     14  C         33.1220   37.9330   69.0990 C.2    54  PHE54       0.2596
     15  O         32.6340   38.5490   68.1590 O.2    54  PHE54      -0.2718
     16  CB        35.5700   37.4900   69.2630 C.3    54  PHE54       0.0547
     17  CG        36.5120   38.1590   68.3190 C.ar   54  PHE54      -0.0202
     18  CD1       36.4480   37.9040   66.9520 C.ar   54  PHE54      -0.0042
     19  CD2       37.4540   39.0670   68.7930 C.ar   54  PHE54      -0.0042
     20  CE1       37.3140   38.5500   66.0670 C.ar   54  PHE54      -0.0003
     21  CE2       38.3240   39.7170   67.9250 C.ar   54  PHE54      -0.0003
     22  CZ        38.2540   39.4580   66.5580 C.ar   54  PHE54      -0.0000
     23  N         32.5460   36.8620   69.6290 N.am   55  THR55      -0.1953
     24  CA        31.2880   36.3600   69.0970 C.3    55  THR55       0.1897
     25  C         30.1500   37.3450   69.3080 C.2    55  THR55       0.2313
     26  O         29.3080   37.5210   68.4330 O.2    55  THR55      -0.2863
     27  CB        30.8960   35.0070   69.7320 C.3    55  THR55       0.1794
     28  OG1       31.2230   35.0150   71.1260 O.3    55  THR55      -0.2208
     29  CG2       31.6240   33.8660   69.0510 C.3    55  THR55       0.0378
     30  N         30.3980   40.4780   69.4300 N.3    57  LEU57      -0.1231
     31  CA        30.5880   41.5640   68.4800 C.3    57  LEU57       0.1693
     32  C         30.1500   41.0990   67.0830 C.2    57  LEU57       0.2591
     33  O         29.8140   41.9150   66.2230 O.2    57  LEU57      -0.2718
     34  CB        32.0500   42.0100   68.4520 C.3    57  LEU57       0.0284
     35  CG        32.5450   42.9480   69.5570 C.3    57  LEU57       0.0019
     36  CD1       34.0390   43.2180   69.3770 C.3    57  LEU57       0.0001
     37  CD2       31.7720   44.2520   69.5040 C.3    57  LEU57       0.0001
     38  N         30.1510   39.7890   66.8550 N.am   58  ALA58      -0.1980
     39  CA        29.7270   39.2560   65.5650 C.3    58  ALA58       0.1597
     40  C         28.2150   39.3650   65.4590 C.2    58  ALA58       0.2287
     41  O         27.6730   39.6480   64.3920 O.2    58  ALA58      -0.2864
     42  CB        30.1510   37.8010   65.4250 C.3    58  ALA58       0.0319
     43  N         26.2970   41.5890   67.0180 N.3    60  VAL60      -0.1231
     44  CA        25.9270   42.9870   66.8640 C.3    60  VAL60       0.1692
     45  C         26.1810   43.3610   65.4030 C.2    60  VAL60       0.2592
     46  O         25.5250   44.2420   64.8340 O.2    60  VAL60      -0.2718
     47  CB        26.7450   43.8740   67.8470 C.3    60  VAL60       0.0266
     48  CG1       26.7310   45.3260   67.4170 C.3    60  VAL60       0.0020
     49  CG2       26.1490   43.7520   69.2370 C.3    60  VAL60       0.0020
     50  N         27.1180   42.6510   64.7880 N.am   61  SER61      -0.1952
     51  CA        27.4540   42.8800   63.3890 C.3    61  SER61       0.1924
     52  C         26.3350   42.3830   62.4630 C.2    61  SER61       0.2314
     53  O         25.9820   43.0470   61.4800 O.2    61  SER61      -0.2863
     54  CB        28.7670   42.1770   63.0510 C.3    61  SER61       0.2116
     55  OG        29.0960   42.3650   61.6930 O.3    61  SER61      -0.2180
     56  N         23.3750   44.6930   62.8110 N.3    64  GLU64      -0.1245
     57  CA        23.7620   45.8940   62.0980 C.3    64  GLU64       0.1567
     58  C         23.6810   45.7180   60.5680 C.2    64  GLU64       0.2260
     59  O         23.3660   46.6660   59.8390 O.2    64  GLU64      -0.2867
     60  CB        25.1770   46.2630   62.5250 C.3    64  GLU64       0.0388
     61  CG        25.7260   47.5070   61.8880 C.3    64  GLU64       0.1160
     62  CD        26.9020   48.0420   62.6640 C.2    64  GLU64       0.3649
     63  OE1       27.6110   48.9330   62.1390 O.co2  64  GLU64      -0.2457
     64  OE2       27.1070   47.5730   63.8070 O.co2  64  GLU64      -0.2457
     65  N         29.1920   37.1310   56.3540 N.3    92  ILE92      -0.1245
     66  CA        30.6360   36.9500   56.5150 C.3    92  ILE92       0.1561
     67  C         31.4560   37.9210   55.6560 C.2    92  ILE92       0.2260
     68  O         32.4370   38.5140   56.1190 O.2    92  ILE92      -0.2867
     69  CB        31.0580   35.4790   56.1770 C.3    92  ILE92       0.0252
     70  CG1       32.5810   35.3300   56.2070 C.3    92  ILE92       0.0019
     71  CG2       30.5750   35.1040   54.7910 C.3    92  ILE92       0.0019
     72  CD1       33.2050   35.6380   57.5290 C.3    92  ILE92       0.0001
     73  N         31.0310   41.4990   56.9490 N.3    95  MET95      -0.1230
     74  CA        31.8460   41.6250   58.1530 C.3    95  MET95       0.1702
     75  C         33.3090   41.8520   57.7550 C.2    95  MET95       0.2592
     76  O         34.0240   42.6540   58.3700 O.2    95  MET95      -0.2718
     77  CB        31.7590   40.3570   59.0120 C.3    95  MET95       0.0401
     78  CG        30.3760   40.0080   59.5320 C.3    95  MET95       0.0596
     79  SD        30.4720   38.5760   60.6280 S.3    95  MET95      -0.1393
     80  CE        28.8570   38.5980   61.4220 C.3    95  MET95       0.0692
     81  N         33.7510   41.1340   56.7250 N.am   96  LEU96      -0.1980
     82  CA        35.1190   41.2580   56.2520 C.3    96  LEU96       0.1596
     83  C         35.3290   42.6450   55.6850 C.2    96  LEU96       0.2287
     84  O         36.3780   43.2500   55.8960 O.2    96  LEU96      -0.2864
     85  CB        35.4230   40.1920   55.1940 C.3    96  LEU96       0.0297
     86  CG        35.6770   38.7880   55.7490 C.3    96  LEU96       0.0022
     87  CD1       35.8690   37.7990   54.6270 C.3    96  LEU96       0.0001
     88  CD2       36.8970   38.8130   56.6440 C.3    96  LEU96       0.0001
     89  N         33.6680   45.2980   56.5680 N.3    98  GLU98      -0.1231
     90  CA        33.6520   46.2070   57.7070 C.3    98  GLU98       0.1699
     91  C         34.9390   46.1520   58.5080 C.2    98  GLU98       0.2592
     92  O         35.3990   47.1670   59.0270 O.2    98  GLU98      -0.2718
     93  CB        32.4640   45.9120   58.6210 C.3    98  GLU98       0.0402
     94  CG        31.1320   46.4840   58.1170 C.3    98  GLU98       0.1161
     95  CD        31.1550   48.0070   57.9840 C.2    98  GLU98       0.3649
     96  OE1       31.9540   48.6540   58.7020 O.co2  98  GLU98      -0.2457
     97  OE2       30.3650   48.5560   57.1780 O.co2  98  GLU98      -0.2457
     98  N         35.5340   44.9750   58.6120 N.am   99  THR99      -0.1953
     99  CA        36.7770   44.8720   59.3560 C.3    99  THR99       0.1897
    100  C         37.8820   45.6290   58.6260 C.2    99  THR99       0.2313
    101  O         38.6710   46.3490   59.2390 O.2    99  THR99      -0.2863
    102  CB        37.1840   43.4200   59.5360 C.3    99  THR99       0.1794
    103  OG1       36.1350   42.7230   60.2170 O.3    99  THR99      -0.2208
    104  CG2       38.4580   43.3260   60.3590 C.3    99  THR99       0.0378
    105  N         37.5620   49.3820   59.2530 N.3   102  ARG102     -0.1245
    106  CA        38.0220   49.8280   60.5560 C.3   102  ARG102      0.1563
    107  C         39.4650   49.3910   60.7790 C.2   102  ARG102      0.2260
    108  O         39.8190   48.9220   61.8600 O.2   102  ARG102     -0.2867
    109  CB        37.1350   49.2430   61.6590 C.3   102  ARG102      0.0307
    110  CG        35.7180   49.7800   61.6620 C.3   102  ARG102      0.0489
    111  CD        34.8970   49.1760   62.7890 C.3   102  ARG102      0.2205
    112  NE        33.7130   49.9760   63.0930 N.pl3 102  ARG102     -0.0865
    113  CZ        32.7550   50.2680   62.2170 C.cat 102  ARG102      0.5346
    114  NH1       32.8350   49.8230   60.9670 N.pl3 102  ARG102      0.1354
    115  NH2       31.7180   51.0100   62.5910 N.pl3 102  ARG102      0.1354
    116  N         36.8990   47.7880   66.2820 N.3   112  PHE112     -0.1227
    117  CA        35.4670   47.5160   66.1870 C.3   112  PHE112      0.1736
    118  C         34.6260   48.4320   67.0560 C.2   112  PHE112      0.2595
    119  O         34.8070   48.4930   68.2720 O.2   112  PHE112     -0.2718
    120  CB        35.1690   46.0680   66.5770 C.3   112  PHE112      0.0547
    121  CG        35.8470   45.0600   65.7100 C.ar  112  PHE112     -0.0202
    122  CD1       35.7080   45.1090   64.3290 C.ar  112  PHE112     -0.0042
    123  CD2       36.6240   44.0600   66.2700 C.ar  112  PHE112     -0.0042
    124  CE1       36.3330   44.1780   63.5170 C.ar  112  PHE112     -0.0003
    125  CE2       37.2560   43.1190   65.4680 C.ar  112  PHE112     -0.0003
    126  CZ        37.1100   43.1790   64.0870 C.ar  112  PHE112     -0.0000
    127  N         33.6940   49.1300   66.4170 N.am  113  LEU113     -0.1980
    128  CA        32.7940   50.0500   67.1030 C.3   113  LEU113      0.1596
    129  C         33.5300   51.2570   67.7060 C.2   113  LEU113      0.2287
    130  O         33.4540   51.5240   68.9140 O.2   113  LEU113     -0.2864
    131  CB        32.0070   49.2950   68.1810 C.3   113  LEU113      0.0297
    132  CG        31.1920   48.0930   67.6840 C.3   113  LEU113      0.0022
    133  CD1       30.6330   47.3380   68.8730 C.3   113  LEU113      0.0001
    134  CD2       30.0690   48.5560   66.7700 C.3   113  LEU113      0.0001
    135  N         43.1310   38.7720   68.0960 N.3   123  PHE123     -0.1241
    136  CA        42.3420   37.8430   67.2940 C.3   123  PHE123      0.1605
    137  C         42.6830   36.4090   67.6980 C.2   123  PHE123      0.2264
    138  O         41.7990   35.5720   67.8810 O.2   123  PHE123     -0.2867
    139  CB        42.6370   38.0450   65.8020 C.3   123  PHE123      0.0534
    140  CG        41.8310   39.1430   65.1570 C.ar  123  PHE123     -0.0203
    141  CD1       40.7310   38.8380   64.3590 C.ar  123  PHE123     -0.0042
    142  CD2       42.1770   40.4770   65.3320 C.ar  123  PHE123     -0.0042
    143  CE1       39.9860   39.8490   63.7410 C.ar  123  PHE123     -0.0003
    144  CE2       41.4410   41.4950   64.7210 C.ar  123  PHE123     -0.0003
    145  CZ        40.3430   41.1790   63.9240 C.ar  123  PHE123     -0.0000
    146  N         41.5390   35.0830   70.8570 N.3   126  ALA126     -0.1231
    147  CA        40.0830   35.0330   70.7980 C.3   126  ALA126      0.1694
    148  C         39.5850   33.7060   70.2220 C.2   126  ALA126      0.2593
    149  O         38.3910   33.4160   70.2620 O.2   126  ALA126     -0.2718
    150  CB        39.5450   36.2030   69.9720 C.3   126  ALA126      0.0304
    151  N         40.4970   32.9030   69.6870 N.am  127  GLY127     -0.1942
    152  CA        40.0940   31.6230   69.1390 C.3   127  GLY127      0.2014
    153  C         40.2910   31.4770   67.6440 C.2   127  GLY127      0.2638
    154  O         40.1140   30.3920   67.0960 O.2   127  GLY127     -0.2714
    155  N         40.6470   32.5670   66.9780 N.am  128  LEU128     -0.1977
    156  CA        40.8660   32.5280   65.5400 C.3   128  LEU128      0.1596
    157  C         42.2330   31.9330   65.2330 C.2   128  LEU128      0.2287
    158  O         43.2080   32.1740   65.9500 O.2   128  LEU128     -0.2864
    159  CB        40.7650   33.9340   64.9410 C.3   128  LEU128      0.0297
    160  CG        39.3680   34.5540   64.9220 C.3   128  LEU128      0.0022
    161  CD1       38.4480   33.6940   64.0760 C.3   128  LEU128      0.0001
    162  CD2       38.8300   34.6680   66.3390 C.3   128  LEU128      0.0001
    163  N         43.6100   32.2630   59.0250 N.3   132  PHE132     -0.1241
    164  CA        42.4400   33.0710   58.7090 C.3   132  PHE132      0.1605
    165  C         42.7530   34.5010   59.1310 C.2   132  PHE132      0.2264
    166  O         42.4590   35.4650   58.4110 O.2   132  PHE132     -0.2867
    167  CB        41.2110   32.5350   59.4600 C.3   132  PHE132      0.0534
    168  CG        39.9430   33.3090   59.2030 C.ar  132  PHE132     -0.0203
    169  CD1       39.5530   33.6330   57.9140 C.ar  132  PHE132     -0.0042
    170  CD2       39.1250   33.6950   60.2610 C.ar  132  PHE132     -0.0042
    171  CE1       38.3680   34.3290   57.6810 C.ar  132  PHE132     -0.0003
    172  CE2       37.9350   34.3930   60.0380 C.ar  132  PHE132     -0.0003
    173  CZ        37.5590   34.7080   58.7480 C.ar  132  PHE132     -0.0000
    174  N         43.0520   37.8220   56.8350 N.3   136  ILE136     -0.1245
    175  CA        42.1590   38.9450   57.1320 C.3   136  ILE136      0.1561
    176  C         42.9090   40.2880   57.1430 C.2   136  ILE136      0.2260
    177  O         42.4420   41.2770   56.5740 O.2   136  ILE136     -0.2867
    178  CB        41.4560   38.7450   58.5010 C.3   136  ILE136      0.0252
    179  CG1       40.4160   37.6280   58.3920 C.3   136  ILE136      0.0019
    180  CG2       40.8010   40.0420   58.9610 C.3   136  ILE136      0.0019
    181  CD1       39.7320   37.3090   59.7110 C.3   136  ILE136      0.0001
    182  N         37.1560   31.0830   56.1650 N.3   218  HIS218     -0.1241
    183  CA        36.3180   31.2410   57.3480 C.3   218  HIS218      0.1621
    184  C         35.5260   29.9760   57.5700 C.2   218  HIS218      0.2264
    185  O         35.3040   29.5480   58.7030 O.2   218  HIS218     -0.2867
    186  CB        35.3810   32.4380   57.1660 C.3   218  HIS218      0.0745
    187  CG        34.2410   32.4740   58.1320 C.ar  218  HIS218      0.0817
    188  ND1       32.9830   32.0140   57.8120 N.ar  218  HIS218     -0.2268
    189  CD2       34.1620   32.9310   59.4050 C.ar  218  HIS218      0.1154
    190  CE1       32.1760   32.1870   58.8420 C.ar  218  HIS218      0.1986
    191  NE2       32.8670   32.7420   59.8220 N.ar  218  HIS218     -0.2212
    192  N         37.6330   27.5250   59.2210 N.3   221  GLN221     -0.1231
    193  CA        37.7850   27.9950   60.5960 C.3   221  GLN221      0.1698
    194  C         36.5730   27.6400   61.4740 C.2   221  GLN221      0.2592
    195  O         36.7220   27.3240   62.6510 O.2   221  GLN221     -0.2718
    196  CB        38.0220   29.5070   60.5970 C.3   221  GLN221      0.0381
    197  CG        37.9140   30.1670   61.9600 C.3   221  GLN221      0.0905
    198  CD        38.9730   29.7160   62.9520 C.2   221  GLN221      0.2608
    199  OE1       39.9190   30.4500   63.2390 O.2   221  GLN221     -0.2717
    200  NE2       38.8120   28.5100   63.4890 N.am  221  GLN221     -0.0878
    201  N         35.3780   27.6920   60.8950 N.am  222  VAL222     -0.1980
    202  CA        34.1590   27.3580   61.6190 C.3   222  VAL222      0.1595
    203  C         34.1400   25.8720   61.9560 C.2   222  VAL222      0.2287
    204  O         33.5190   25.4620   62.9340 O.2   222  VAL222     -0.2864
    205  CB        32.9040   27.7280   60.7860 C.3   222  VAL222      0.0276
    206  CG1       31.6910   26.9590   61.2690 C.3   222  VAL222      0.0022
    207  CG2       32.6380   29.2150   60.9050 C.3   222  VAL222      0.0022
    208  N         36.2670   24.6050   64.8440 N.3   225  LEU225     -0.1245
    209  CA        35.6380   24.9230   66.1260 C.3   225  LEU225      0.1561
    210  C         35.2230   23.6830   66.8970 C.2   225  LEU225      0.2260
    211  O         35.1290   23.7130   68.1200 O.2   225  LEU225     -0.2867
    212  CB        34.4180   25.8360   65.9370 C.3   225  LEU225      0.0270
    213  CG        34.6730   27.3460   65.9830 C.3   225  LEU225      0.0019
    214  CD1       33.3500   28.0990   65.9230 C.3   225  LEU225      0.0001
    215  CD2       35.4210   27.6890   67.2580 C.3   225  LEU225      0.0001
    216  N         29.3200   28.2230   69.0710 N.3   232  LEU232     -0.1245
    217  CA        28.8150   29.5050   68.6040 C.3   232  LEU232      0.1561
    218  C         27.4290   29.8910   69.1240 C.2   232  LEU232      0.2260
    219  O         26.5260   29.0560   69.2170 O.2   232  LEU232     -0.2867
    220  CB        28.7950   29.5250   67.0630 C.3   232  LEU232      0.0270
    221  CG        30.0660   29.2340   66.2460 C.3   232  LEU232      0.0019
    222  CD1       29.6980   28.9510   64.8160 C.3   232  LEU232      0.0001
    223  CD2       31.0030   30.4020   66.3010 C.3   232  LEU232      0.0001
    224  N         24.8070   32.8720   65.3280 N.3   236  LEU236     -0.1245
    225  CA        25.9760   32.5760   64.5140 C.3   236  LEU236      0.1561
    226  C         25.9270   31.1130   64.0680 C.2   236  LEU236      0.2260
    227  O         26.0840   30.8070   62.8860 O.2   236  LEU236     -0.2867
    228  CB        27.2610   32.8680   65.2980 C.3   236  LEU236      0.0270
    229  CG        27.4170   34.3340   65.7240 C.3   236  LEU236      0.0019
    230  CD1       28.7480   34.5530   66.3980 C.3   236  LEU236      0.0001
    231  CD2       27.3010   35.2320   64.5100 C.3   236  LEU236      0.0001
    232  N         26.4180   29.8320   59.9160 N.3   240  TRP240     -0.1241
    233  CA        27.7310   29.2890   59.5980 C.3   240  TRP240      0.1605
    234  C         27.8740   27.7910   59.8560 C.2   240  TRP240      0.2264
    235  O         28.3920   27.0670   59.0130 O.2   240  TRP240     -0.2867
    236  CB        28.8040   30.0190   60.4000 C.3   240  TRP240      0.0550
    237  CG        28.9410   31.4710   60.1180 C.ar  240  TRP240      0.0003
    238  CD1       28.6870   32.1110   58.9370 C.ar  240  TRP240      0.0946
    239  CD2       29.5070   32.4550   60.9950 C.ar  240  TRP240      0.0152
    240  NE1       29.0720   33.4290   59.0210 N.ar  240  TRP240     -0.2442
    241  CE2       29.5790   33.6660   60.2750 C.ar  240  TRP240      0.0810
    242  CE3       29.9700   32.4270   62.3200 C.ar  240  TRP240      0.0012
    243  CZ2       30.0970   34.8380   60.8380 C.ar  240  TRP240      0.0191
    244  CZ3       30.4850   33.5860   62.8740 C.ar  240  TRP240      0.0001
    245  CH2       30.5450   34.7740   62.1360 C.ar  240  TRP240      0.0015
@<TRIPOS>BOND
     1    87    86    1
     2    71    69    1
     3    85    86    1
     4    85    82    1
     5    67    68    2
     6    67    66    1
     7    83    84    2
     8    83    82    1
     9    86    88    1
    10   182   183    1
    11    69    70    1
    12    69    66    1
    13    70    72    1
    14    82    81    1
    15    65    66    1
    16    89    90    1
    17   177   176    2
    18    81    75   am
    19   174   175    1
    20    73    74    1
    21   175   176    1
    22   175   178    1
    23   186   183    1
    24   186   187    1
    25    97    95   ar
    26   183   184    1
    27   184   185    2
    28   171   169   ar
    29   171   173   ar
    30    90    91    1
    31    90    93    1
    32    75    74    1
    33    75    76    2
    34   188   187   ar
    35   188   190   ar
    36   169   168   ar
    37    95    94    1
    38    95    96   ar
    39    94    93    1
    40   187   189   ar
    41    74    77    1
    42   179   178    1
    43   179   181    1
    44   166   165    2
    45   178   180    1
    46    91    98   am
    47    91    92    2
    48    98    99    1
    49   100   101    2
    50   100    99    1
    51   164   163    1
    52   164   165    1
    53   164   167    1
    54   173   172   ar
    55   190   191   ar
    56   238   240   ar
    57   238   237   ar
    58    77    78    1
    59   235   234    2
    60   240   241   ar
    61   168   167    1
    62   168   170   ar
    63   192   193    1
    64   105   106    1
    65    99   102    1
    66   189   191   ar
    67    78    79    1
    68   102   103    1
    69   102   104    1
    70   233   234    1
    71   233   232    1
    72   233   236    1
    73    59    58    2
    74   172   170   ar
    75   237   236    1
    76   237   239   ar
    77   241   243   ar
    78   241   239   ar
    79   106   107    1
    80   106   109    1
    81    58    57    1
    82   193   196    1
    83   193   194    1
    84   196   197    1
    85    79    80    1
    86   107   108    2
    87   205   207    1
    88   205   206    1
    89   205   202    1
    90   243   245   ar
    91   201   194   am
    92   201   202    1
    93   114   113    1
    94   239   242   ar
    95   194   195    2
    96    53    52    2
    97   202   203    1
    98   109   110    1
    99   110   111    1
   100    55    54    1
   101    61    60    1
   102    61    62    1
   103   203   204    2
   104   197   198    1
   105    57    60    1
   106    57    56    1
   107   245   244   ar
   108    63    62   ar
   109   113   115    1
   110   113   112    2
   111   242   244   ar
   112    52    51    1
   113    62    64   ar
   114   111   112    1
   115   227   226    2
   116   198   199    2
   117   198   200   am
   118    54    51    1
   119    51    50    1
   120   124   126   ar
   121   124   122   ar
   122   143   145   ar
   123   143   141   ar
   124   145   144   ar
   125   226   225    1
   126   161   160    1
   127   126   125   ar
   128   122   121   ar
   129   141   140   ar
   130    41    40    2
   131   231   229    1
   132   225   228    1
   133   225   224    1
   134   144   142   ar
   135    50    45   am
   136   222   221    1
   137    46    45    2
   138   208   209    1
   139   160   159    1
   140   160   162    1
   141   159   156    1
   142   140   142   ar
   143   140   139    1
   144   157   156    1
   145   157   158    2
   146   228   229    1
   147    45    44    1
   148    42    39    1
   149    40    39    1
   150   125   123   ar
   151   156   155    1
   152    39    38    1
   153   121   123   ar
   154   121   120    1
   155   229   230    1
   156   139   136    1
   157   214   213    1
   158   212   213    1
   159   212   209    1
   160   213   215    1
   161    20    22   ar
   162    20    18   ar
   163   209   210    1
   164   117   116    1
   165   117   120    1
   166   117   118    1
   167    33    32    2
   168   221   223    1
   169   221   220    1
   170   127   118   am
   171   127   128    1
   172    22    21   ar
   173   134   132    1
   174    38    32   am
   175    44    43    1
   176    44    47    1
   177   210   211    2
   178    18    17   ar
   179   155   153   am
   180   118   119    2
   181   220   217    1
   182    32    31    1
   183   154   153    2
   184   128   129    1
   185   128   131    1
   186   136   137    1
   187   136   135    1
   188    48    47    1
   189   153   152    1
   190   132   131    1
   191   132   133    1
   192   137   138    2
   193   129   130    2
   194    47    49    1
   195    21    19   ar
   196    15    14    2
   197    17    19   ar
   198    17    16    1
   199    26    25    2
   200    34    31    1
   201    34    35    1
   202    31    30    1
   203   217   216    1
   204   217   218    1
   205    29    27    1
   206    24    25    1
   207    24    23    1
   208    24    27    1
   209    14    23   am
   210    14    13    1
   211   218   219    2
   212   152   151    1
   213    16    13    1
   214    36    35    1
   215    37    35    1
   216   151   148   am
   217    13    12    1
   218    27    28    1
   219    10    11   ar
   220    10     8   ar
   221   150   147    1
   222    11     9   ar
   223   148   149    2
   224   148   147    1
   225     8     6   ar
   226   147   146    1
   227     9     7   ar
   228     4     3    2
   229     6     7   ar
   230     6     5    1
   231     3     2    1
   232     2     5    1
   233     2     1    1
