@<TRIPOS>MOLECULE
tmp/2acoB00.pdb
 160 159 0 0 0
SMALL
GASTEIGER

@<TRIPOS>ATOM
      1  N         24.2870   34.8460   26.2340 N.3    42  HIS42      -0.1226
      2  CA        22.9600   34.3780   26.6270 C.3    42  HIS42       0.1752
      3  C         22.6890   33.0700   25.9080 C.2    42  HIS42       0.2596
      4  O         23.4330   32.6750   24.9990 O.2    42  HIS42      -0.2718
      5  CB        21.8790   35.4050   26.2590 C.3    42  HIS42       0.0759
      6  CG        21.8980   35.7680   24.8100 C.ar   42  HIS42       0.0818
      7  ND1       21.8760   34.8150   23.8210 N.ar   42  HIS42      -0.2268
      8  CD2       22.0230   36.9570   24.1800 C.ar   42  HIS42       0.1154
      9  CE1       21.9590   35.4020   22.6420 C.ar   42  HIS42       0.1986
     10  NE2       22.0460   36.7000   22.8300 N.ar   42  HIS42      -0.2212
     11  N         21.6120   32.4180   26.3350 N.am   43  ARG43      -0.1966
     12  CA        21.1390   31.1450   25.8120 C.3    43  ARG43       0.1729
     13  C         21.2350   31.0090   24.2920 C.2    43  ARG43       0.2616
     14  O         21.7820   30.0380   23.7750 O.2    43  ARG43      -0.2715
     15  CB        19.6700   30.9670   26.2420 C.3    43  ARG43       0.0348
     16  CG        19.0780   29.5750   26.0610 C.3    43  ARG43       0.0492
     17  CD        17.8940   29.2870   27.0070 C.3    43  ARG43       0.2205
     18  NE        16.8980   28.3850   26.4110 N.pl3  43  ARG43      -0.0865
     19  CZ        15.5690   28.4570   26.6060 C.cat  43  ARG43       0.5346
     20  NH1       15.0310   29.3930   27.3930 N.pl3  43  ARG43       0.1354
     21  NH2       14.7610   27.5880   25.9970 N.pl3  43  ARG43       0.1354
     22  N         20.7020   31.9910   23.5730 N.am   44  PHE44      -0.1960
     23  CA        20.4800   31.8170   22.1480 C.3    44  PHE44       0.1771
     24  C         21.6620   32.1880   21.2580 C.2    44  PHE44       0.2619
     25  O         21.5230   32.2030   20.0250 O.2    44  PHE44      -0.2715
     26  CB        19.1920   32.5290   21.7430 C.3    44  PHE44       0.0574
     27  CG        17.9740   31.9530   22.4180 C.ar   44  PHE44      -0.0200
     28  CD1       17.5120   30.6800   22.0770 C.ar   44  PHE44      -0.0042
     29  CD2       17.3240   32.6520   23.4370 C.ar   44  PHE44      -0.0042
     30  CE1       16.3930   30.1260   22.7220 C.ar   44  PHE44      -0.0003
     31  CE2       16.2090   32.1050   24.0770 C.ar   44  PHE44      -0.0003
     32  CZ        15.7510   30.8440   23.7150 C.ar   44  PHE44      -0.0000
     33  N         22.8140   32.4620   21.8670 N.am   45  GLU45      -0.1977
     34  CA        24.0610   32.5440   21.1170 C.3    45  GLU45       0.1602
     35  C         25.2300   31.7990   21.7480 C.2    45  GLU45       0.2287
     36  O         26.3280   31.8430   21.2150 O.2    45  GLU45      -0.2864
     37  CB        24.4690   34.0080   20.9240 C.3    45  GLU45       0.0415
     38  CG        23.5730   34.7850   19.9850 C.3    45  GLU45       0.1163
     39  CD        24.0810   36.1980   19.8120 C.2    45  GLU45       0.3649
     40  OE1       24.7600   36.4160   18.8040 O.co2  45  GLU45      -0.2457
     41  OE2       23.8550   37.0500   20.6970 O.co2  45  GLU45      -0.2457
     42  N         20.4830   42.3910    8.0230 N.3    55  TYR55      -0.1241
     43  CA        19.1990   43.0720    8.0530 C.3    55  TYR55       0.1605
     44  C         18.7860   43.3790    6.6220 C.2    55  TYR55       0.2264
     45  O         19.5970   43.7850    5.8020 O.2    55  TYR55      -0.2867
     46  CB        19.2860   44.3740    8.8460 C.3    55  TYR55       0.0534
     47  CG        19.8670   44.1790   10.2380 C.ar   55  TYR55      -0.0201
     48  CD1       19.1090   43.6020   11.2440 C.ar   55  TYR55      -0.0009
     49  CD2       21.1630   44.5430   10.5300 C.ar   55  TYR55      -0.0009
     50  CE1       19.6340   43.4110   12.5210 C.ar   55  TYR55       0.0417
     51  CE2       21.6980   44.3660   11.7990 C.ar   55  TYR55       0.0417
     52  CZ        20.9270   43.7820   12.7820 C.ar   55  TYR55       0.1957
     53  OH        21.4410   43.5980   14.0280 O.3    55  TYR55      -0.2866
     54  N         15.7020   40.0160   10.2020 N.3    65  VAL65      -0.1245
     55  CA        16.8900   39.9190   10.9980 C.3    65  VAL65       0.1561
     56  C         17.4020   38.4890   10.9390 C.2    65  VAL65       0.2260
     57  O         16.6950   37.5500   11.3030 O.2    65  VAL65      -0.2867
     58  CB        16.6100   40.2550   12.4670 C.3    65  VAL65       0.0252
     59  CG1       17.8810   40.1680   13.2690 C.3    65  VAL65       0.0019
     60  CG2       15.9730   41.6270   12.5890 C.3    65  VAL65       0.0019
     61  N         20.4860   36.0080   12.2630 N.3    67  ASN67      -0.1240
     62  CA        21.6170   35.9040   13.1430 C.3    67  ASN67       0.1653
     63  C         22.2500   34.5290   12.8810 C.2    67  ASN67       0.2266
     64  O         21.6220   33.4980   13.0940 O.2    67  ASN67      -0.2867
     65  CB        21.1730   36.1740   14.5720 C.3    67  ASN67       0.1155
     66  CG        20.4220   37.5800   14.7280 C.2    67  ASN67       0.2627
     67  OD1       19.3290   37.6020   15.3130 O.2    67  ASN67      -0.2716
     68  ND2       21.0210   38.7390   14.2310 N.am   67  ASN67      -0.0877
     69  N         19.2260   31.7990   12.8310 N.3    80  SER80      -0.1217
     70  CA        17.8730   32.0610   13.2570 C.3    80  SER80       0.1889
     71  C         17.3770   33.2700   12.4890 C.2    80  SER80       0.2288
     72  O         18.1330   34.2320   12.3080 O.2    80  SER80      -0.2866
     73  CB        17.8440   32.3790   14.7480 C.3    80  SER80       0.2089
     74  OG        18.3790   31.3160   15.5290 O.3    80  SER80      -0.2183
     75  N         11.5120   42.7790   18.1700 N.3    97  VAL97      -0.1245
     76  CA        11.9690   41.6780   17.3590 C.3    97  VAL97       0.1561
     77  C         11.4210   40.3550   17.8650 C.2    97  VAL97       0.2260
     78  O         11.4610   40.0740   19.0510 O.2    97  VAL97      -0.2867
     79  CB        13.5130   41.6170   17.3100 C.3    97  VAL97       0.0252
     80  CG1       13.9590   40.7060   16.1880 C.3    97  VAL97       0.0019
     81  CG2       14.0740   43.0080   17.1200 C.3    97  VAL97       0.0019
     82  N         11.6520   36.0570   16.9610 N.3    99  PHE99      -0.1227
     83  CA        12.1820   34.8860   16.2470 C.3    99  PHE99       0.1736
     84  C         11.2890   33.6330   16.4090 C.2    99  PHE99       0.2595
     85  O         11.6020   32.5720   15.8860 O.2    99  PHE99      -0.2718
     86  CB        13.5730   34.5450   16.7760 C.3    99  PHE99       0.0547
     87  CG        14.6310   35.5340   16.3780 C.ar   99  PHE99      -0.0202
     88  CD1       14.8410   36.6770   17.1220 C.ar   99  PHE99      -0.0042
     89  CD2       15.4170   35.3150   15.2660 C.ar   99  PHE99      -0.0042
     90  CE1       15.8050   37.5810   16.7730 C.ar   99  PHE99      -0.0003
     91  CE2       16.3870   36.2100   14.9080 C.ar   99  PHE99      -0.0003
     92  CZ        16.5830   37.3550   15.6540 C.ar   99  PHE99      -0.0000
     93  N         10.1960   33.7630   17.1470 N.am  100  PHE100     -0.1976
     94  CA         9.3270   32.6230   17.4460 C.3   100  PHE100      0.1639
     95  C          8.0360   33.1890   17.9640 C.2   100  PHE100      0.2290
     96  O          7.9830   33.7180   19.0760 O.2   100  PHE100     -0.2864
     97  CB         9.9460   31.7150   18.5080 C.3   100  PHE100      0.0560
     98  CG         9.0510   30.5680   18.9300 C.ar  100  PHE100     -0.0200
     99  CD1        8.3810   30.5980   20.1530 C.ar  100  PHE100     -0.0042
    100  CD2        8.8870   29.4710   18.1070 C.ar  100  PHE100     -0.0042
    101  CE1        7.5520   29.5490   20.5420 C.ar  100  PHE100     -0.0003
    102  CE2        8.0590   28.4050   18.5010 C.ar  100  PHE100     -0.0003
    103  CZ         7.3900   28.4630   19.7220 C.ar  100  PHE100     -0.0000
    104  N         11.1460   40.9970   21.7740 N.3   105  GLY105     -0.1210
    105  CA        12.1250   41.6360   22.6280 C.3   105  GLY105      0.1956
    106  C         12.5540   42.9720   22.0400 C.2   105  GLY105      0.2612
    107  O         12.5120   43.1760   20.8100 O.2   105  GLY105     -0.2717
    108  N         12.9560   43.8910   22.9160 N.am  106  GLY106     -0.1942
    109  CA        13.4180   45.1940   22.4700 C.3   106  GLY106      0.2014
    110  C         14.8200   45.1690   21.8860 C.2   106  GLY106      0.2638
    111  O         15.6970   44.4480   22.3630 O.2   106  GLY106     -0.2714
    112  N         14.9930   45.9250   20.8020 N.am  107  TYR107     -0.1973
    113  CA        16.2490   46.0970   20.0950 C.3   107  TYR107      0.1639
    114  C         16.4620   47.6080   19.9990 C.2   107  TYR107      0.2290
    115  O         15.6660   48.3120   19.3760 O.2   107  TYR107     -0.2864
    116  CB        16.1560   45.4510   18.7020 C.3   107  TYR107      0.0560
    117  CG        17.3850   45.5450   17.8140 C.ar  107  TYR107     -0.0198
    118  CD1       17.7450   46.7400   17.1950 C.ar  107  TYR107     -0.0009
    119  CD2       18.1560   44.4240   17.5500 C.ar  107  TYR107     -0.0009
    120  CE1       18.8620   46.8200   16.3490 C.ar  107  TYR107      0.0417
    121  CE2       19.2560   44.4810   16.7210 C.ar  107  TYR107      0.0417
    122  CZ        19.6160   45.6930   16.1280 C.ar  107  TYR107      0.1957
    123  OH        20.7090   45.7150   15.3170 O.3   107  TYR107     -0.2866
    124  N         19.3780   45.1190   24.3180 N.3   123  GLY123     -0.1210
    125  CA        18.0670   44.5370   24.4260 C.3   123  GLY123      0.1940
    126  C         17.2160   45.2030   25.4880 C.2   123  GLY123      0.2453
    127  O         17.4240   46.3630   25.8290 O.2   123  GLY123     -0.2732
    128  N         16.2440   44.4530   26.0210 N.am  124  PRO124     -0.2728
    129  CA        15.2710   44.9850   26.9910 C.3   124  PRO124      0.1401
    130  C         15.7350   45.0750   28.4480 C.2   124  PRO124      0.2269
    131  O         14.9630   45.5020   29.3180 O.2   124  PRO124     -0.2865
    132  CB        14.1040   44.0160   26.8640 C.3   124  PRO124      0.0296
    133  CG        14.6900   42.7560   26.4520 C.3   124  PRO124      0.0237
    134  CD        15.9540   43.0600   25.6600 C.3   124  PRO124      0.0939
    135  N         21.6260   42.2670   28.0060 N.3   128  TYR128     -0.1241
    136  CA        21.6860   42.1630   26.5570 C.3   128  TYR128      0.1605
    137  C         22.3500   43.3600   25.8820 C.2   128  TYR128      0.2264
    138  O         21.8150   44.4400   25.8840 O.2   128  TYR128     -0.2867
    139  CB        20.2980   41.9560   25.9860 C.3   128  TYR128      0.0534
    140  CG        19.7130   40.6540   26.4410 C.ar  128  TYR128     -0.0201
    141  CD1       18.9640   40.5740   27.6020 C.ar  128  TYR128     -0.0009
    142  CD2       19.9560   39.4830   25.7250 C.ar  128  TYR128     -0.0009
    143  CE1       18.4540   39.3640   28.0330 C.ar  128  TYR128      0.0417
    144  CE2       19.4530   38.2790   26.1570 C.ar  128  TYR128      0.0417
    145  CZ        18.7060   38.2270   27.2980 C.ar  128  TYR128      0.1957
    146  OH        18.2060   37.0130   27.7010 O.3   128  TYR128     -0.2866
    147  N         25.3390   44.2500   22.4770 N.3   130  TRP130     -0.1241
    148  CA        26.1470   43.7960   21.3640 C.3   130  TRP130      0.1605
    149  C         26.9570   44.9680   20.8020 C.2   130  TRP130      0.2264
    150  O         26.4540   46.0750   20.7490 O.2   130  TRP130     -0.2867
    151  CB        25.2500   43.2960   20.2210 C.3   130  TRP130      0.0550
    152  CG        24.4560   42.0580   20.5300 C.ar  130  TRP130      0.0003
    153  CD1       24.8320   40.7900   20.2880 C.ar  130  TRP130      0.0946
    154  CD2       23.1660   41.9880   21.1230 C.ar  130  TRP130      0.0152
    155  NE1       23.8610   39.9060   20.6920 N.ar  130  TRP130     -0.2442
    156  CE2       22.8220   40.6150   21.2210 C.ar  130  TRP130      0.0810
    157  CE3       22.2460   42.9370   21.5710 C.ar  130  TRP130      0.0012
    158  CZ2       21.6110   40.1810   21.7370 C.ar  130  TRP130      0.0191
    159  CZ3       21.0360   42.4950   22.1010 C.ar  130  TRP130      0.0001
    160  CH2       20.7370   41.1300   22.1760 C.ar  130  TRP130      0.0015
@<TRIPOS>BOND
     1    45    44    2
     2    44    43    1
     3    42    43    1
     4    43    46    1
     5    46    47    1
     6    54    55    1
     7    47    49   ar
     8    47    48   ar
     9    49    51   ar
    10    56    55    1
    11    56    57    2
    12    55    58    1
    13    48    50   ar
    14    51    52   ar
    15    61    62    1
    16    72    71    2
    17    58    60    1
    18    58    59    1
    19    71    70    1
    20    50    52   ar
    21    52    53    1
    22    69    70    1
    23    63    64    2
    24    63    62    1
    25    62    65    1
    26    70    73    1
    27    68    66   am
    28    65    66    1
    29    66    67    2
    30    73    74    1
    31    91    89   ar
    32    91    92   ar
    33    89    87   ar
    34   123   122    1
    35    92    90   ar
    36    85    84    2
    37   122   120   ar
    38   122   121   ar
    39    80    79    1
    40    83    84    1
    41    83    86    1
    42    83    82    1
    43   120   118   ar
    44    87    86    1
    45    87    88   ar
    46    84    93   am
    47   121   119   ar
    48    90    88   ar
    49    81    79    1
    50    93    94    1
    51   118   117   ar
    52    79    76    1
    53    76    77    1
    54    76    75    1
    55    94    95    1
    56    94    97    1
    57   119   117   ar
    58   117   116    1
    59    77    78    2
    60    95    96    2
    61   100   102   ar
    62   100    98   ar
    63   102   103   ar
    64    97    98    1
    65   116   113    1
    66    40    39   ar
    67    98    99   ar
    68   115   114    2
    69   103   101   ar
    70    39    38    1
    71    39    41   ar
    72    38    37    1
    73   114   113    1
    74    25    24    2
    75   113   112    1
    76    99   101   ar
    77   151   152    1
    78   151   148    1
    79   153   152   ar
    80   153   155   ar
    81   152   154   ar
    82   155   156   ar
    83   150   149    2
    84   112   110   am
    85   149   148    1
    86   107   106    2
    87    37    34    1
    88    34    35    1
    89    34    33    1
    90   154   156   ar
    91   154   157   ar
    92    36    35    2
    93   156   158   ar
    94    24    33   am
    95    24    23    1
    96   148   147    1
    97   157   159   ar
    98   158   160   ar
    99    26    23    1
   100    26    27    1
   101   104   105    1
   102   110   111    2
   103   110   109    1
   104   106   105    1
   105   106   108   am
   106    28    27   ar
   107    28    30   ar
   108   159   160   ar
   109    23    22    1
   110    27    29   ar
   111   109   108    1
   112     9    10   ar
   113     9     7   ar
   114    30    32   ar
   115    10     8   ar
   116    29    31   ar
   117    22    13   am
   118    32    31   ar
   119    14    13    2
   120     7     6   ar
   121     8     6   ar
   122    13    12    1
   123   124   125    1
   124   125   126    1
   125     6     5    1
   126     4     3    2
   127   126   127    2
   128   126   128   am
   129   134   128    1
   130   134   133    1
   131   142   144   ar
   132   142   140   ar
   133    12    15    1
   134    12    11    1
   135   137   138    2
   136   137   136    1
   137     3    11   am
   138     3     2    1
   139   139   140    1
   140   139   136    1
   141    21    19    1
   142   128   129    1
   143    16    15    1
   144    16    17    1
   145   144   145   ar
   146     1     2    1
   147     5     2    1
   148    18    19    2
   149    18    17    1
   150   140   141   ar
   151   133   132    1
   152   136   135    1
   153    19    20    1
   154   132   129    1
   155   129   130    1
   156   145   146    1
   157   145   143   ar
   158   141   143   ar
   159   130   131    2
