@<TRIPOS>MOLECULE
tmp/2acpA00.pdb
 225 210 0 0 0
SMALL
GASTEIGER

@<TRIPOS>ATOM
      1  N         17.5290   87.6550   24.1860 N.3    25  VAL25      -0.1245
      2  CA        17.0010   87.4280   25.5560 C.3    25  VAL25       0.1561
      3  C         17.0990   88.7320   26.3210 C.2    25  VAL25       0.2260
      4  O         18.2020   89.1880   26.5500 O.2    25  VAL25      -0.2867
      5  CB        17.8090   86.3380   26.2520 C.3    25  VAL25       0.0252
      6  CG1       17.3240   86.2080   27.6740 C.3    25  VAL25       0.0019
      7  CG2       17.6970   85.0220   25.5140 C.3    25  VAL25       0.0019
      8  N         15.9690   86.8450   31.9450 N.3    28  PHE28      -0.1241
      9  CA        16.0130   85.4100   32.1780 C.3    28  PHE28       0.1605
     10  C         15.8250   85.0720   33.6510 C.2    28  PHE28       0.2264
     11  O         16.2570   85.7960   34.5320 O.2    28  PHE28      -0.2867
     12  CB        17.2870   84.7590   31.6240 C.3    28  PHE28       0.0534
     13  CG        18.5840   85.1510   32.2940 C.ar   28  PHE28      -0.0203
     14  CD1       19.0570   84.4160   33.3760 C.ar   28  PHE28      -0.0042
     15  CD2       19.3830   86.1910   31.8180 C.ar   28  PHE28      -0.0042
     16  CE1       20.2640   84.7230   33.9510 C.ar   28  PHE28      -0.0003
     17  CE2       20.5670   86.4780   32.4300 C.ar   28  PHE28      -0.0003
     18  CZ        20.9790   85.7240   33.5040 C.ar   28  PHE28      -0.0000
     19  N         16.7720   81.6470   35.8370 N.3    30  ASP30      -0.1239
     20  CA        17.3500   80.3170   36.0160 C.3    30  ASP30       0.1674
     21  C         16.9860   79.8460   37.4070 C.2    30  ASP30       0.2266
     22  O         17.3030   80.5360   38.3700 O.2    30  ASP30      -0.2867
     23  CB        18.8330   80.3200   35.8050 C.3    30  ASP30       0.1410
     24  CG        19.3280   78.9450   35.5340 C.2    30  ASP30       0.3668
     25  OD1       18.9670   77.9970   36.2720 O.co2  30  ASP30      -0.2456
     26  OD2       20.0890   78.7180   34.5790 O.co2  30  ASP30      -0.2456
     27  N         23.8920   78.0380   39.6900 N.3    35  VAL35      -0.1245
     28  CA        24.4220   78.6350   38.4460 C.3    35  VAL35       0.1561
     29  C         24.7550   80.1180   38.6320 C.2    35  VAL35       0.2260
     30  O         23.8610   80.8820   38.9440 O.2    35  VAL35      -0.2867
     31  CB        23.3600   78.6260   37.2970 C.3    35  VAL35       0.0252
     32  CG1       22.8090   77.2530   37.0430 C.3    35  VAL35       0.0019
     33  CG2       22.2010   79.5730   37.6330 C.3    35  VAL35       0.0019
     34  N         27.2800   82.3680   36.5690 N.3    37  ASP37      -0.1225
     35  CA        27.6960   83.2730   35.5120 C.3    37  ASP37       0.1805
     36  C         26.4050   83.6940   34.8290 C.2    37  ASP37       0.2598
     37  O         25.4490   82.9420   34.7770 O.2    37  ASP37      -0.2718
     38  CB        28.6730   82.6200   34.5310 C.3    37  ASP37       0.1424
     39  CG        30.1110   82.5270   35.0780 C.2    37  ASP37       0.3668
     40  OD1       30.5660   83.4270   35.8440 O.co2  37  ASP37      -0.2456
     41  OD2       30.8590   81.5750   34.7450 O.co2  37  ASP37      -0.2456
     42  N         26.3890   84.9350   34.3740 N.am   38  GLN38      -0.1965
     43  CA        25.2610   85.4890   33.6590 C.3    38  GLN38       0.1733
     44  C         25.6360   85.6400   32.2170 C.2    38  GLN38       0.2616
     45  O         26.7130   86.0720   31.8950 O.2    38  GLN38      -0.2715
     46  CB        24.9050   86.8380   34.2290 C.3    38  GLN38       0.0408
     47  CG        24.5580   86.7580   35.7040 C.3    38  GLN38       0.0908
     48  CD        24.1800   88.0760   36.2810 C.2    38  GLN38       0.2608
     49  OE1       23.1510   88.1780   36.9890 O.2    38  GLN38      -0.2717
     50  NE2       24.9850   89.0960   36.0170 N.am   38  GLN38      -0.0878
     51  N         24.7250   85.2720   31.3510 N.am   39  TYR39      -0.1960
     52  CA        24.9590   85.2930   29.9410 C.3    39  TYR39       0.1771
     53  C         23.9920   86.2570   29.2870 C.2    39  TYR39       0.2620
     54  O         22.9260   86.4990   29.7810 O.2    39  TYR39      -0.2715
     55  CB        24.7110   83.8860   29.3520 C.3    39  TYR39       0.0574
     56  CG        25.9150   82.9460   29.3900 C.ar   39  TYR39      -0.0198
     57  CD1       26.0520   82.0450   30.4120 C.ar   39  TYR39      -0.0009
     58  CD2       26.9130   83.0000   28.4290 C.ar   39  TYR39      -0.0009
     59  CE1       27.1360   81.1930   30.4610 C.ar   39  TYR39       0.0417
     60  CE2       27.9950   82.1630   28.4760 C.ar   39  TYR39       0.0417
     61  CZ        28.1110   81.2710   29.5030 C.ar   39  TYR39       0.1957
     62  OH        29.2120   80.4000   29.5570 O.3    39  TYR39      -0.2866
     63  N         24.4180   86.7650   28.1540 N.am   40  CYS40      -0.1954
     64  CA        23.5550   87.2800   27.1230 C.3    40  CYS40       0.1843
     65  C         23.4120   86.2370   26.0020 C.2    40  CYS40       0.2626
     66  O         24.2980   85.4070   25.8230 O.2    40  CYS40      -0.2714
     67  CB        24.2220   88.5060   26.5450 C.3    40  CYS40       0.0997
     68  SG        24.6250   89.6900   27.8350 S.3    40  CYS40      -0.0797
     69  N         22.2560   86.1950   25.3420 N.am   41  SER41      -0.1950
     70  CA        22.0190   85.2390   24.2990 C.3    41  SER41       0.1924
     71  C         21.1690   85.8350   23.2100 C.2    41  SER41       0.2314
     72  O         20.2520   86.6650   23.4240 O.2    41  SER41      -0.2863
     73  CB        21.3060   84.0080   24.8520 C.3    41  SER41       0.2116
     74  OG        21.1310   83.0060   23.8300 O.3    41  SER41      -0.2180
     75  N         19.5700   84.4020   19.1840 N.3    43  PHE43      -0.1241
     76  CA        19.4520   83.2680   18.2690 C.3    43  PHE43       0.1605
     77  C         18.4420   83.4940   17.1820 C.2    43  PHE43       0.2264
     78  O         17.5470   84.3640   17.3120 O.2    43  PHE43      -0.2867
     79  CB        19.1320   81.9650   19.0600 C.3    43  PHE43       0.0534
     80  CG        17.7320   81.8920   19.6610 C.ar   43  PHE43      -0.0203
     81  CD1       17.4290   82.5150   20.8320 C.ar   43  PHE43      -0.0042
     82  CD2       16.7790   81.0610   19.0900 C.ar   43  PHE43      -0.0042
     83  CE1       16.1100   82.3620   21.3860 C.ar   43  PHE43      -0.0003
     84  CE2       15.4810   80.8960   19.5680 C.ar   43  PHE43      -0.0003
     85  CZ        15.1190   81.5560   20.7320 C.ar   43  PHE43      -0.0000
     86  N         18.3900   76.1700   14.1570 N.3    54  GLU54      -0.1245
     87  CA        18.6070   77.5170   14.7120 C.3    54  GLU54       0.1567
     88  C         20.0830   77.7780   15.0210 C.2    54  GLU54       0.2260
     89  O         20.8030   76.8640   15.4110 O.2    54  GLU54      -0.2867
     90  CB        17.7330   77.7250   15.9130 C.3    54  GLU54       0.0388
     91  CG        17.9260   76.7480   17.0350 C.3    54  GLU54       0.1160
     92  CD        16.7900   76.7700   18.0850 C.2    54  GLU54       0.3649
     93  OE1       15.7020   77.3720   17.8490 O.co2  54  GLU54      -0.2457
     94  OE2       16.8950   76.1110   19.1420 O.co2  54  GLU54      -0.2457
     95  N         22.6210   79.7670   17.4060 N.3    56  LEU56      -0.1245
     96  CA        22.6000   80.2750   18.7280 C.3    56  LEU56       0.1561
     97  C         23.9650   80.9060   19.1230 C.2    56  LEU56       0.2260
     98  O         25.0260   80.3990   18.7710 O.2    56  LEU56      -0.2867
     99  CB        22.1880   79.1230   19.5820 C.3    56  LEU56       0.0270
    100  CG        22.2270   79.2980   21.0580 C.3    56  LEU56       0.0019
    101  CD1       21.2700   80.3140   21.5090 C.3    56  LEU56       0.0001
    102  CD2       22.0070   77.9640   21.6740 C.3    56  LEU56       0.0001
    103  N         25.9180   82.7880   22.6550 N.3    58  HIS58      -0.1241
    104  CA        26.0390   83.1410   24.0530 C.3    58  HIS58       0.1621
    105  C         27.2310   84.0310   24.2540 C.2    58  HIS58       0.2264
    106  O         28.3050   83.7430   23.7050 O.2    58  HIS58      -0.2867
    107  CB        26.3000   81.9170   24.9070 C.3    58  HIS58       0.0745
    108  CG        25.1110   81.0320   25.1090 C.ar   58  HIS58       0.0817
    109  ND1       24.6470   80.1950   24.1320 N.ar   58  HIS58      -0.2268
    110  CD2       24.4250   80.7220   26.2340 C.ar   58  HIS58       0.1154
    111  CE1       23.6390   79.4750   24.6160 C.ar   58  HIS58       0.1986
    112  NE2       23.5130   79.7460   25.9080 N.ar   58  HIS58      -0.2212
    113  N         30.4020   81.7020   22.8710 N.3    67  PHE67      -0.1241
    114  CA        30.3590   80.4540   22.1080 C.3    67  PHE67       0.1605
    115  C         29.1660   80.4320   21.1740 C.2    67  PHE67       0.2264
    116  O         28.1480   81.1190   21.4030 O.2    67  PHE67      -0.2867
    117  CB        30.4640   79.2090   23.0140 C.3    67  PHE67       0.0534
    118  CG        29.3700   79.0600   24.0230 C.ar   67  PHE67      -0.0203
    119  CD1       28.2730   78.3010   23.7280 C.ar   67  PHE67      -0.0042
    120  CD2       29.4980   79.5900   25.2850 C.ar   67  PHE67      -0.0042
    121  CE1       27.2810   78.1240   24.6300 C.ar   67  PHE67      -0.0003
    122  CE2       28.4960   79.4210   26.2510 C.ar   67  PHE67      -0.0003
    123  CZ        27.3700   78.6780   25.8750 C.ar   67  PHE67      -0.0000
    124  N         26.5780   77.8680   18.5570 N.3    69  ASN69      -0.1240
    125  CA        25.9600   76.5710   18.3510 C.3    69  ASN69       0.1653
    126  C         24.9920   76.5940   17.1710 C.2    69  ASN69       0.2266
    127  O         24.4300   77.6360   16.8160 O.2    69  ASN69      -0.2867
    128  CB        25.2590   76.0450   19.6040 C.3    69  ASN69       0.1155
    129  CG        26.1750   75.9030   20.7790 C.2    69  ASN69       0.2627
    130  OD1       26.2090   76.7930   21.6320 O.2    69  ASN69      -0.2716
    131  ND2       26.9080   74.7830   20.8670 N.am   69  ASN69      -0.0877
    132  N         22.5780   69.6200   19.3150 N.3    86  TYR86      -0.1241
    133  CA        23.3220   70.7950   18.9570 C.3    86  TYR86       0.1605
    134  C         24.7920   70.5270   18.7460 C.2    86  TYR86       0.2264
    135  O         25.3960   69.6870   19.4120 O.2    86  TYR86      -0.2867
    136  CB        23.1030   71.8690   19.9840 C.3    86  TYR86       0.0534
    137  CG        23.5660   71.5060   21.3790 C.ar   86  TYR86      -0.0201
    138  CD1       22.6840   70.8790   22.2460 C.ar   86  TYR86      -0.0009
    139  CD2       24.9120   71.7080   21.8360 C.ar   86  TYR86      -0.0009
    140  CE1       23.0510   70.5320   23.5080 C.ar   86  TYR86       0.0417
    141  CE2       25.2830   71.3780   23.1150 C.ar   86  TYR86       0.0417
    142  CZ        24.3490   70.7340   23.9530 C.ar   86  TYR86       0.1957
    143  OH        24.6330   70.3620   25.2650 O.3    86  TYR86      -0.2866
    144  N         18.4950   69.9810   24.1950 N.3   105  TYR105     -0.1241
    145  CA        17.7050   70.9690   24.8820 C.3   105  TYR105      0.1605
    146  C         16.2920   70.8810   24.3510 C.2   105  TYR105      0.2264
    147  O         16.1020   70.6830   23.1800 O.2   105  TYR105     -0.2867
    148  CB        18.2840   72.4060   24.8450 C.3   105  TYR105      0.0534
    149  CG        18.3610   73.0130   23.4870 C.ar  105  TYR105     -0.0201
    150  CD1       19.4880   72.8700   22.7320 C.ar  105  TYR105     -0.0009
    151  CD2       17.3460   73.8240   22.9640 C.ar  105  TYR105     -0.0009
    152  CE1       19.6110   73.4280   21.4980 C.ar  105  TYR105      0.0417
    153  CE2       17.4530   74.3570   21.6670 C.ar  105  TYR105      0.0417
    154  CZ        18.6050   74.2110   20.9550 C.ar  105  TYR105      0.1957
    155  OH        18.6910   74.7380   19.6620 O.3   105  TYR105     -0.2866
    156  N         12.9520   73.1290   24.0260 N.3   107  LEU107     -0.1245
    157  CA        12.4830   74.4990   24.0110 C.3   107  LEU107      0.1561
    158  C         10.9510   74.4490   23.8160 C.2   107  LEU107      0.2260
    159  O         10.4480   73.8220   22.8810 O.2   107  LEU107     -0.2867
    160  CB        13.2030   75.2970   22.9200 C.3   107  LEU107      0.0270
    161  CG        12.8690   76.8120   22.9540 C.3   107  LEU107      0.0019
    162  CD1       14.0720   77.6240   22.4580 C.3   107  LEU107      0.0001
    163  CD2       11.6160   77.1450   22.2370 C.3   107  LEU107      0.0001
    164  N          9.7550   81.8060   26.3560 N.3   119  VAL119     -0.1245
    165  CA        10.1190   80.3700   26.2110 C.3   119  VAL119      0.1561
    166  C         10.7210   79.8140   27.4910 C.2   119  VAL119      0.2260
    167  O         11.3100   80.5080   28.2570 O.2   119  VAL119     -0.2867
    168  CB        11.0070   80.1130   24.9660 C.3   119  VAL119      0.0252
    169  CG1       10.4580   80.8050   23.6690 C.3   119  VAL119      0.0019
    170  CG2       12.4140   80.5190   25.1560 C.3   119  VAL119      0.0019
    171  N         13.3190   76.6230   28.4940 N.3   121  ILE121     -0.1245
    172  CA        14.4120   75.7420   27.9840 C.3   121  ILE121      0.1561
    173  C         14.8540   74.8030   29.0710 C.2   121  ILE121      0.2260
    174  O         15.1730   75.2210   30.1900 O.2   121  ILE121     -0.2867
    175  CB        15.6420   76.5730   27.4750 C.3   121  ILE121      0.0252
    176  CG1       15.2040   77.5510   26.3930 C.3   121  ILE121      0.0019
    177  CG2       16.8170   75.6820   27.0220 C.3   121  ILE121      0.0019
    178  CD1       16.1230   78.6890   26.1950 C.3   121  ILE121      0.0001
    179  N         17.9170   72.3280   29.3300 N.3   123  LEU123     -0.1245
    180  CA        19.1750   71.8080   28.7820 C.3   123  LEU123      0.1561
    181  C         19.5980   70.5810   29.5630 C.2   123  LEU123      0.2260
    182  O         19.6000   70.6150   30.7880 O.2   123  LEU123     -0.2867
    183  CB        20.2820   72.9020   28.8850 C.3   123  LEU123      0.0270
    184  CG        21.6720   72.5540   28.3490 C.3   123  LEU123      0.0019
    185  CD1       21.6600   72.2720   26.8460 C.3   123  LEU123      0.0001
    186  CD2       22.5560   73.7050   28.6850 C.3   123  LEU123      0.0001
    187  N         22.6090   67.5250   29.8050 N.3   125  GLU125     -0.1245
    188  CA        23.9160   67.0260   29.3830 C.3   125  GLU125      0.1567
    189  C         24.1520   65.6430   29.9890 C.2   125  GLU125      0.2260
    190  O         24.4460   65.5260   31.1860 O.2   125  GLU125     -0.2867
    191  CB        25.0220   68.0330   29.7780 C.3   125  GLU125      0.0388
    192  CG        24.9460   69.3620   29.0420 C.3   125  GLU125      0.1160
    193  CD        25.8840   70.4140   29.6310 C.2   125  GLU125      0.3649
    194  OE1       26.7110   70.0790   30.5360 O.co2 125  GLU125     -0.2457
    195  OE2       25.7950   71.5890   29.2240 O.co2 125  GLU125     -0.2457
    196  N         20.1080   71.1470   33.5440 N.3   130  LEU130     -0.1245
    197  CA        20.6070   72.4670   33.9620 C.3   130  LEU130      0.1561
    198  C         19.5670   73.1530   34.8690 C.2   130  LEU130      0.2260
    199  O         19.8570   74.2060   35.3950 O.2   130  LEU130     -0.2867
    200  CB        20.8450   73.3840   32.7120 C.3   130  LEU130      0.0270
    201  CG        21.1420   74.9090   32.7760 C.3   130  LEU130      0.0019
    202  CD1       22.6670   75.1370   33.0030 C.3   130  LEU130      0.0001
    203  CD2       20.6330   75.8320   31.5630 C.3   130  LEU130      0.0001
    204  N         15.0520   77.0660   32.7900 N.3   133  LEU133     -0.1245
    205  CA        15.4400   78.3840   32.3270 C.3   133  LEU133      0.1561
    206  C         14.2840   78.9930   31.5750 C.2   133  LEU133      0.2260
    207  O         13.8380   78.4330   30.5870 O.2   133  LEU133     -0.2867
    208  CB        16.7060   78.2720   31.4430 C.3   133  LEU133      0.0270
    209  CG        17.1710   79.5200   30.6860 C.3   133  LEU133      0.0019
    210  CD1       17.6220   80.5470   31.7080 C.3   133  LEU133      0.0001
    211  CD2       18.3470   79.1740   29.7390 C.3   133  LEU133      0.0001
    212  N         13.1730   82.4540   29.4610 N.3   135  THR135     -0.1218
    213  CA        13.7560   83.6250   28.7660 C.3   135  THR135      0.1862
    214  C         12.6550   84.4200   28.0810 C.2   135  THR135      0.2287
    215  O         11.9160   83.8580   27.2950 O.2   135  THR135     -0.2866
    216  CB        14.7610   83.2250   27.7040 C.3   135  THR135      0.1770
    217  OG1       14.2240   82.2740   26.7830 O.3   135  THR135     -0.2211
    218  CG2       16.0450   82.5340   28.3410 C.3   135  THR135      0.0375
    219  N         19.0840   91.6980   30.8370 N.3   166  THR166     -0.1218
    220  CA        20.3760   91.6500   30.1730 C.3   166  THR166      0.1862
    221  C         20.8820   93.0150   29.6660 C.2   166  THR166      0.2287
    222  O         22.0710   93.1400   29.3550 O.2   166  THR166     -0.2866
    223  CB        20.3490   90.6900   28.9840 C.3   166  THR166      0.1770
    224  OG1       19.3710   91.1520   28.0720 O.3   166  THR166     -0.2211
    225  CG2       19.9050   89.3020   29.4240 C.3   166  THR166      0.0375
@<TRIPOS>BOND
     1    86    87    1
     2    87    88    1
     3    87    90    1
     4    88    89    2
     5    90    91    1
     6   127   126    2
     7    91    92    1
     8   126   125    1
     9    77    78    2
    10    77    76    1
    11    95    96    1
    12    93    92   ar
    13    92    94   ar
    14    76    79    1
    15    76    75    1
    16   125   124    1
    17   125   128    1
    18    96    97    1
    19    96    99    1
    20   134   133    1
    21   134   135    2
    22    98    97    2
    23   133   132    1
    24   133   136    1
    25    79    80    1
    26    82    84   ar
    27    82    80   ar
    28    84    85   ar
    29    99   100    1
    30   128   129    1
    31    80    81   ar
    32   155   154    1
    33   136   137    1
    34    85    83   ar
    35   129   131   am
    36   129   130    2
    37    81    83   ar
    38   154   152   ar
    39   154   153   ar
    40   100   101    1
    41   100   102    1
    42   115   116    2
    43   115   114    1
    44   137   139   ar
    45   137   138   ar
    46   152   150   ar
    47   153   151   ar
    48   139   141   ar
    49   114   113    1
    50   114   117    1
    51   163   161    1
    52   138   140   ar
    53   162   161    1
    54   103   104    1
    55   150   149   ar
    56   159   158    2
    57   160   161    1
    58   160   157    1
    59   151   149   ar
    60   117   118    1
    61   141   142   ar
    62   147   146    2
    63    71    72    2
    64    71    70    1
    65   149   148    1
    66   140   142   ar
    67   169   168    1
    68   106   105    2
    69   119   118   ar
    70   119   121   ar
    71   158   157    1
    72    74    73    1
    73   142   143    1
    74   157   156    1
    75   118   120   ar
    76   104   105    1
    77   104   107    1
    78   109   111   ar
    79   109   108   ar
    80     1     2    1
    81   144   145    1
    82    70    73    1
    83    70    69    1
    84   146   145    1
    85   111   112   ar
    86   121   123   ar
    87   148   145    1
    88   107   108    1
    89   168   170    1
    90   168   165    1
    91   108   110   ar
    92   120   122   ar
    93    69    65   am
    94     7     5    1
    95     2     5    1
    96     2     3    1
    97    66    65    2
    98   123   122   ar
    99   112   110   ar
   100    65    64    1
   101   178   176    1
   102   165   164    1
   103   165   166    1
   104     5     6    1
   105     3     4    2
   106   176   175    1
   107    67    64    1
   108    67    68    1
   109   217   216    1
   110   185   184    1
   111   177   175    1
   112    64    63    1
   113   215   214    2
   114   175   172    1
   115   166   167    2
   116   216   218    1
   117   216   213    1
   118   172   171    1
   119   172   173    1
   120   224   223    1
   121   214   213    1
   122    63    53   am
   123   184   186    1
   124   184   183    1
   125    58    60   ar
   126    58    56   ar
   127    60    61   ar
   128   213   212    1
   129   180   183    1
   130   180   179    1
   131   180   181    1
   132   223   225    1
   133   223   220    1
   134   192   193    1
   135   192   191    1
   136   173   174    2
   137   195   193   ar
   138    53    54    2
   139    53    52    1
   140    55    56    1
   141    55    52    1
   142   222   221    2
   143   188   191    1
   144   188   187    1
   145   188   189    1
   146    56    57   ar
   147    61    62    1
   148    61    59   ar
   149   181   182    2
   150   193   194   ar
   151   221   220    1
   152   211   209    1
   153    52    51    1
   154   189   190    2
   155   220   219    1
   156    57    59   ar
   157   207   206    2
   158   209   208    1
   159   209   210    1
   160    51    44   am
   161   208   205    1
   162   203   201    1
   163   206   205    1
   164    12     9    1
   165    12    13    1
   166    15    13   ar
   167    15    17   ar
   168    45    44    2
   169     8     9    1
   170     9    10    1
   171    44    43    1
   172    13    14   ar
   173   205   204    1
   174    17    18   ar
   175   200   201    1
   176   200   197    1
   177   201   202    1
   178    14    16   ar
   179    18    16   ar
   180   196   197    1
   181    10    11    2
   182    43    46    1
   183    43    42    1
   184   197   198    1
   185    46    47    1
   186    42    36   am
   187    38    39    1
   188    38    35    1
   189    26    24   ar
   190    41    39   ar
   191    37    36    2
   192    36    35    1
   193   198   199    2
   194    39    40   ar
   195    35    34    1
   196    24    23    1
   197    24    25   ar
   198    47    48    1
   199    23    20    1
   200    19    20    1
   201    20    21    1
   202    50    48   am
   203    48    49    2
   204    32    31    1
   205    31    33    1
   206    31    28    1
   207    21    22    2
   208    28    29    1
   209    28    27    1
   210    29    30    2
