@<TRIPOS>MOLECULE
tmp/2acqA00.pdb
 146 150 0 0 0
SMALL
GASTEIGER

@<TRIPOS>ATOM
      1  N         16.1030   24.3010   70.3440 N.3    20  TRP20      -0.1241
      2  CA        16.5730   23.5890   69.1780 C.3    20  TRP20       0.1605
      3  C         17.6340   22.5910   69.6560 C.2    20  TRP20       0.2264
      4  O         18.5340   22.9370   70.4320 O.2    20  TRP20      -0.2867
      5  CB        17.1550   24.5720   68.1540 C.3    20  TRP20       0.0550
      6  CG        17.7970   23.9320   66.9150 C.ar   20  TRP20       0.0003
      7  CD1       17.3840   22.8050   66.2550 C.ar   20  TRP20       0.0946
      8  CD2       19.0060   24.3570   66.2620 C.ar   20  TRP20       0.0152
      9  NE1       18.2780   22.4920   65.2610 N.ar   20  TRP20      -0.2442
     10  CE2       19.2710   23.4310   65.2370 C.ar   20  TRP20       0.0810
     11  CE3       19.8820   25.4250   66.4480 C.ar   20  TRP20       0.0012
     12  CZ2       20.3850   23.5490   64.4010 C.ar   20  TRP20       0.0191
     13  CZ3       20.9970   25.5320   65.6120 C.ar   20  TRP20       0.0001
     14  CH2       21.2280   24.6020   64.6110 C.ar   20  TRP20       0.0015
     15  N          9.5120   22.7060   63.8260 N.3    47  VAL47      -0.1231
     16  CA        10.6060   21.9700   63.1910 C.3    47  VAL47       0.1692
     17  C         11.6210   21.3380   64.1790 C.2    47  VAL47       0.2592
     18  O         12.3280   20.3770   63.8260 O.2    47  VAL47      -0.2718
     19  CB        11.3150   22.8910   62.1540 C.3    47  VAL47       0.0266
     20  CG1       12.1130   23.9830   62.8450 C.3    47  VAL47       0.0020
     21  CG2       12.1910   22.0940   61.2110 C.3    47  VAL47       0.0020
     22  N         11.5700   21.7430   65.4480 N.am   48  TYR48      -0.1976
     23  CA        12.4580   21.1530   66.4520 C.3    48  TYR48       0.1639
     24  C         11.9920   19.7510   66.9000 C.2    48  TYR48       0.2290
     25  O         12.7450   19.0250   67.5590 O.2    48  TYR48      -0.2864
     26  CB        12.6030   22.0810   67.6780 C.3    48  TYR48       0.0560
     27  CG        13.1490   23.4820   67.4040 C.ar   48  TYR48      -0.0198
     28  CD1       13.7870   23.7990   66.1950 C.ar   48  TYR48      -0.0009
     29  CD2       13.0520   24.4860   68.3720 C.ar   48  TYR48      -0.0009
     30  CE1       14.3050   25.0910   65.9690 C.ar   48  TYR48       0.0417
     31  CE2       13.5580   25.7720   68.1510 C.ar   48  TYR48       0.0417
     32  CZ        14.1720   26.0740   66.9440 C.ar   48  TYR48       0.1957
     33  OH        14.5720   27.3700   66.6830 O.3    48  TYR48      -0.2866
     34  N          6.9250   27.0970   60.0610 N.3    79  TRP79      -0.1241
     35  CA         7.9710   26.4900   59.2450 C.3    79  TRP79       0.1605
     36  C          7.6990   26.7990   57.7830 C.2    79  TRP79       0.2264
     37  O          6.6190   27.2850   57.4320 O.2    79  TRP79      -0.2867
     38  CB         8.0530   24.9710   59.4660 C.3    79  TRP79       0.0550
     39  CG         9.2150   24.3220   58.7170 C.ar   79  TRP79       0.0003
     40  CD1        9.1170   23.3730   57.7420 C.ar   79  TRP79       0.0946
     41  CD2       10.6030   24.7070   58.7570 C.ar   79  TRP79       0.0152
     42  NE1       10.3400   23.1660   57.1500 N.ar   79  TRP79      -0.2442
     43  CE2       11.2720   23.9670   57.7530 C.ar   79  TRP79       0.0810
     44  CE3       11.3470   25.6060   59.5410 C.ar   79  TRP79       0.0012
     45  CZ2       12.6480   24.1030   57.5070 C.ar   79  TRP79       0.0191
     46  CZ3       12.7070   25.7390   59.2940 C.ar   79  TRP79       0.0001
     47  CH2       13.3410   24.9920   58.2820 C.ar   79  TRP79       0.0015
     48  N          9.6450   31.6420   60.5370 N.3   110  HIS110     -0.1226
     49  CA        10.9620   31.0650   60.8720 C.3   110  HIS110      0.1752
     50  C         12.0660   31.5010   59.9060 C.2   110  HIS110      0.2596
     51  O         13.1910   31.7740   60.3370 O.2   110  HIS110     -0.2718
     52  CB        10.8490   29.5300   60.8560 C.3   110  HIS110      0.0759
     53  CG        11.7520   28.8210   61.8240 C.ar  110  HIS110      0.0818
     54  ND1       13.0610   29.1940   62.0440 N.ar  110  HIS110     -0.2268
     55  CD2       11.5840   27.6480   62.4840 C.ar  110  HIS110      0.1154
     56  CE1       13.6660   28.2810   62.7860 C.ar  110  HIS110      0.1986
     57  NE2       12.7890   27.3320   63.0650 N.ar  110  HIS110     -0.2212
     58  N         11.7890   31.3890   58.6030 N.am  111  TRP111     -0.1976
     59  CA        12.6810   31.8720   57.5350 C.3   111  TRP111      0.1640
     60  C         11.7830   32.5800   56.5220 C.2   111  TRP111      0.2290
     61  O         10.6360   32.2000   56.3570 O.2   111  TRP111     -0.2864
     62  CB        13.3770   30.6950   56.8390 C.3   111  TRP111      0.0576
     63  CG        14.3750   29.9660   57.6840 C.ar  111  TRP111      0.0006
     64  CD1       14.1260   28.9430   58.5590 C.ar  111  TRP111      0.0946
     65  CD2       15.7670   30.2960   57.8400 C.ar  111  TRP111      0.0152
     66  NE1       15.2750   28.6350   59.2650 N.ar  111  TRP111     -0.2442
     67  CE2       16.2900   29.4540   58.8420 C.ar  111  TRP111      0.0810
     68  CE3       16.6160   31.2300   57.2350 C.ar  111  TRP111      0.0012
     69  CZ2       17.6420   29.5270   59.2570 C.ar  111  TRP111      0.0191
     70  CZ3       17.9550   31.2990   57.6460 C.ar  111  TRP111      0.0001
     71  CH2       18.4460   30.4600   58.6430 C.ar  111  TRP111      0.0015
     72  N         10.2950   18.3640   55.8610 N.3   121  PHE121     -0.1227
     73  CA        10.6070   19.7280   56.2600 C.3   121  PHE121      0.1736
     74  C         11.4600   20.4070   55.1920 C.2   121  PHE121      0.2595
     75  O         11.3940   21.6260   55.0080 O.2   121  PHE121     -0.2718
     76  CB        11.3460   19.7540   57.5890 C.3   121  PHE121      0.0547
     77  CG        10.4920   19.4100   58.7730 C.ar  121  PHE121     -0.0202
     78  CD1        9.1160   19.6720   58.7720 C.ar  121  PHE121     -0.0042
     79  CD2       11.0620   18.8800   59.9180 C.ar  121  PHE121     -0.0042
     80  CE1        8.3440   19.4150   59.8990 C.ar  121  PHE121     -0.0003
     81  CE2       10.2890   18.6240   61.0430 C.ar  121  PHE121     -0.0003
     82  CZ         8.9360   18.8920   61.0330 C.ar  121  PHE121     -0.0000
     83  N         12.3000   19.6190   54.5280 N.am  122  PHE122     -0.1976
     84  CA        13.0570   20.0990   53.3850 C.3   122  PHE122      0.1639
     85  C         12.7490   19.2660   52.1430 C.2   122  PHE122      0.2290
     86  O         13.4390   18.2910   51.8690 O.2   122  PHE122     -0.2864
     87  CB        14.5570   20.0420   53.6850 C.3   122  PHE122      0.0560
     88  CG        15.0420   21.1280   54.6000 C.ar  122  PHE122     -0.0200
     89  CD1       14.9380   21.0030   55.9730 C.ar  122  PHE122     -0.0042
     90  CD2       15.6580   22.2660   54.0810 C.ar  122  PHE122     -0.0042
     91  CE1       15.4500   21.9920   56.8070 C.ar  122  PHE122     -0.0003
     92  CE2       16.1540   23.2450   54.9060 C.ar  122  PHE122     -0.0003
     93  CZ        16.0540   23.1090   56.2660 C.ar  122  PHE122     -0.0000
     94  N         19.8670   34.9050   68.5750 N.3   209  TYR209     -0.1241
     95  CA        19.9540   33.4680   68.7500 C.3   209  TYR209      0.1605
     96  C         21.3880   32.9640   68.5780 C.2   209  TYR209      0.2264
     97  O         22.2840   33.7140   68.1480 O.2   209  TYR209     -0.2867
     98  CB        18.9510   32.7440   67.8280 C.3   209  TYR209      0.0534
     99  CG        19.2880   32.7310   66.3590 C.ar  209  TYR209     -0.0201
    100  CD1       20.3950   32.0210   65.8820 C.ar  209  TYR209     -0.0009
    101  CD2       18.3990   33.2450   65.4300 C.ar  209  TYR209     -0.0009
    102  CE1       20.5860   31.8050   64.5210 C.ar  209  TYR209      0.0417
    103  CE2       18.5780   33.0250   64.0510 C.ar  209  TYR209      0.0417
    104  CZ        19.6600   32.3020   63.6120 C.ar  209  TYR209      0.1957
    105  OH        19.7780   31.9920   62.2800 O.3   209  TYR209     -0.2866
    106  N         24.6830   20.5060   64.3040 N.3   218  PRO218     -0.2102
    107  CA        25.0190   19.1850   63.7630 C.3   218  PRO218      0.1504
    108  C         26.1350   19.2300   62.7140 C.2   218  PRO218      0.2575
    109  O         26.8960   18.2660   62.5760 O.2   218  PRO218     -0.2718
    110  CB        23.6940   18.6730   63.1890 C.3   218  PRO218      0.0282
    111  CG        22.7730   19.8520   63.1530 C.3   218  PRO218      0.0208
    112  CD        23.2510   20.8210   64.1720 C.3   218  PRO218      0.0893
    113  N         26.3420   20.4120   62.1300 N.am  219  TRP219     -0.1977
    114  CA        27.3310   20.6110   61.0730 C.3   219  TRP219      0.1640
    115  C         28.6910   21.1060   61.5750 C.2   219  TRP219      0.2290
    116  O         29.5490   21.4920   60.7710 O.2   219  TRP219     -0.2864
    117  CB        26.7780   21.5760   59.9990 C.3   219  TRP219      0.0576
    118  CG        26.2230   22.8940   60.5270 C.ar  219  TRP219      0.0006
    119  CD1       26.9280   24.0390   60.7790 C.ar  219  TRP219      0.0946
    120  CD2       24.8530   23.1890   60.8430 C.ar  219  TRP219      0.0152
    121  NE1       26.0810   25.0220   61.2350 N.ar  219  TRP219     -0.2442
    122  CE2       24.8070   24.5270   61.2850 C.ar  219  TRP219      0.0810
    123  CE3       23.6630   22.4620   60.7760 C.ar  219  TRP219      0.0012
    124  CZ2       23.6180   25.1450   61.6510 C.ar  219  TRP219      0.0191
    125  CZ3       22.4860   23.0860   61.1310 C.ar  219  TRP219      0.0001
    126  CH2       22.4720   24.4110   61.5590 C.ar  219  TRP219      0.0015
    127  N         24.2090   29.5610   61.1990 N.3   298  CYS298     -0.1235
    128  CA        23.0330   29.1370   60.4470 C.3   298  CYS298      0.1677
    129  C         22.9280   29.9140   59.1580 C.2   298  CYS298      0.2270
    130  O         22.4090   31.0180   59.1400 O.2   298  CYS298     -0.2867
    131  CB        21.7640   29.3470   61.2610 C.3   298  CYS298      0.0956
    132  SG        21.6590   28.2470   62.6560 S.3   298  CYS298     -0.0801
    133  N         21.6140   28.4900   56.2560 N.3   300  LEU300     -0.1245
    134  CA        20.6130   27.8100   55.4190 C.3   300  LEU300      0.1561
    135  C         21.2020   27.5520   54.0250 C.2   300  LEU300      0.2260
    136  O         20.7430   28.1270   53.0400 O.2   300  LEU300     -0.2867
    137  CB        19.3470   28.6770   55.3070 C.3   300  LEU300      0.0270
    138  CG        17.9130   28.1600   55.4900 C.3   300  LEU300      0.0019
    139  CD1       17.0370   28.8350   54.4690 C.3   300  LEU300      0.0001
    140  CD2       17.7930   26.6670   55.3930 C.3   300  LEU300      0.0001
    141  N         21.4650   25.1550   51.9070 N.3   302  SER302     -0.1217
    142  CA        20.7220   24.4200   50.8880 C.3   302  SER302      0.1889
    143  C         19.7530   25.3190   50.1200 C.2   302  SER302      0.2288
    144  O         19.2980   24.9510   49.0370 O.2   302  SER302     -0.2866
    145  CB        19.9540   23.2670   51.5290 C.3   302  SER302      0.2089
    146  OG        18.9660   23.7540   52.4210 O.3   302  SER302     -0.2183
@<TRIPOS>BOND
     1   144   143    2
     2   143   142    1
     3   142   145    1
     4   142   141    1
     5   145   146    1
     6    86    85    2
     7    85    84    1
     8   136   135    2
     9    84    87    1
    10    84    83    1
    11    87    88    1
    12   135   134    1
    13    90    88   ar
    14    90    92   ar
    15   139   138    1
    16    83    74   am
    17    88    89   ar
    18    92    93   ar
    19    75    74    2
    20    74    73    1
    21   137   134    1
    22   137   138    1
    23   140   138    1
    24   134   133    1
    25    72    73    1
    26    89    91   ar
    27    73    76    1
    28    93    91   ar
    29    61    60    2
    30    60    59    1
    31    62    59    1
    32    62    63    1
    33    42    40   ar
    34    42    43   ar
    35    68    70   ar
    36    68    65   ar
    37    37    36    2
    38    45    43   ar
    39    45    47   ar
    40    59    58    1
    41    76    77    1
    42    70    71   ar
    43    63    65   ar
    44    63    64   ar
    45    40    39   ar
    46    43    41   ar
    47    36    35    1
    48    65    67   ar
    49    47    46   ar
    50    64    66   ar
    51    58    50   am
    52    71    69   ar
    53    39    41   ar
    54    39    38    1
    55    41    44   ar
    56    78    77   ar
    57    78    80   ar
    58    77    79   ar
    59    67    69   ar
    60    67    66   ar
    61   130   129    2
    62   129   128    1
    63    35    38    1
    64    35    34    1
    65    46    44   ar
    66    80    82   ar
    67    50    51    2
    68    50    49    1
    69    79    81   ar
    70   117   118    1
    71   117   114    1
    72   128   127    1
    73   128   131    1
    74   118   119   ar
    75   118   120   ar
    76    48    49    1
    77   116   115    2
    78   123   120   ar
    79   123   125   ar
    80   119   121   ar
    81   120   122   ar
    82    52    49    1
    83    52    53    1
    84    82    81   ar
    85   114   115    1
    86   114   113    1
    87   125   126   ar
    88    21    19    1
    89   121   122   ar
    90   131   132    1
    91   122   124   ar
    92   126   124   ar
    93    53    54   ar
    94    53    55   ar
    95    54    56   ar
    96   113   108   am
    97    19    20    1
    98    19    16    1
    99   105   104    1
   100    55    57   ar
   101   109   108    2
   102   108   107    1
   103    56    57   ar
   104   111   110    1
   105   111   112    1
   106   110   107    1
   107    16    15    1
   108    16    17    1
   109   104   103   ar
   110   104   102   ar
   111   107   106    1
   112    18    17    2
   113   103   101   ar
   114   112   106    1
   115    17    22   am
   116    12    14   ar
   117    12    10   ar
   118   102   100   ar
   119    14    13   ar
   120    10     9   ar
   121    10     8   ar
   122     9     7   ar
   123   101    99   ar
   124    22    23    1
   125    13    11   ar
   126   100    99   ar
   127    30    28   ar
   128    30    32   ar
   129    28    27   ar
   130     7     6   ar
   131     8    11   ar
   132     8     6   ar
   133    99    98    1
   134    23    24    1
   135    23    26    1
   136    33    32    1
   137    24    25    2
   138     6     5    1
   139    32    31   ar
   140    27    26    1
   141    27    29   ar
   142    98    95    1
   143    97    96    2
   144    31    29   ar
   145     5     2    1
   146    94    95    1
   147    96    95    1
   148     2     3    1
   149     2     1    1
   150     3     4    2
