@<TRIPOS>MOLECULE
tmp/2acvB00.pdb
 161 157 0 0 0
SMALL
GASTEIGER

@<TRIPOS>ATOM
      1  N         -3.3540   28.5560   -9.5120 N.3    14  GLY14      -0.1225
      2  CA        -2.0950   27.9970   -9.9670 C.3    14  GLY14       0.1811
      3  C         -2.3630   26.8770  -10.9550 C.2    14  GLY14       0.2280
      4  O         -1.7160   26.7760  -11.9990 O.2    14  GLY14      -0.2866
      5  N          1.8810   36.1570  -17.1640 N.3   245  GLY245     -0.1210
      6  CA         1.8590   36.1540  -15.7120 C.3   245  GLY245      0.1956
      7  C          0.5070   36.5770  -15.1710 C.2   245  GLY245      0.2611
      8  O         -0.2370   37.2880  -15.8470 O.2   245  GLY245     -0.2717
      9  N          0.1850   36.1400  -13.9560 N.am  246  GLN246     -0.1979
     10  CA        -1.0870   36.4840  -13.3280 C.3   246  GLN246      0.1601
     11  C         -1.2700   38.0040  -13.2900 C.2   246  GLN246      0.2287
     12  O         -0.6490   38.6900  -12.4770 O.2   246  GLN246     -0.2864
     13  CB        -1.1390   35.9280  -11.9010 C.3   246  GLN246      0.0394
     14  CG        -2.4930   36.0930  -11.2260 C.3   246  GLN246      0.0908
     15  CD        -2.4660   35.7380   -9.7510 C.2   246  GLN246      0.2608
     16  OE1       -1.8250   36.4180   -8.9470 O.2   246  GLN246     -0.2717
     17  NE2       -3.1650   34.6670   -9.3860 N.am  246  GLN246     -0.0878
     18  N         12.7020   33.9740   -5.2150 N.3   275  CYS275     -0.1235
     19  CA        11.2580   33.8360   -5.1230 C.3   275  CYS275      0.1677
     20  C         10.9460   32.3820   -4.7760 C.2   275  CYS275      0.2270
     21  O         11.4580   31.4530   -5.4100 O.2   275  CYS275     -0.2867
     22  CB        10.6160   34.2350   -6.4470 C.3   275  CYS275      0.0956
     23  SG         8.8640   34.6110   -6.3150 S.3   275  CYS275     -0.0801
     24  N          7.7400   30.4680   -4.5910 N.3   277  GLY277     -0.1210
     25  CA         6.3900   29.9660   -4.7740 C.3   277  GLY277      0.1956
     26  C          5.2460   30.9120   -4.4870 C.2   277  GLY277      0.2613
     27  O          5.4530   32.0510   -4.0860 O.2   277  GLY277     -0.2717
     28  N          4.0290   30.4140   -4.6760 N.am  278  SER278     -0.1938
     29  CA         2.8220   31.2090   -4.4840 C.3   278  SER278      0.2055
     30  C          1.9490   30.8190   -3.2910 C.2   278  SER278      0.2642
     31  O          0.8360   31.3220   -3.1530 O.2   278  SER278     -0.2714
     32  CB         1.9760   31.1500   -5.7590 C.3   278  SER278      0.2130
     33  OG         1.5990   29.8150   -6.0630 O.3   278  SER278     -0.2179
     34  N          2.4410   29.9390   -2.4290 N.am  279  MET279     -0.1976
     35  CA         1.6620   29.5040   -1.2720 C.3   279  MET279      0.1605
     36  C          1.5920   30.5410   -0.1550 C.2   279  MET279      0.2287
     37  O          0.7410   30.4470    0.7310 O.2   279  MET279     -0.2864
     38  CB         2.2230   28.1950   -0.7320 C.3   279  MET279      0.0413
     39  CG         2.2240   27.0790   -1.7590 C.3   279  MET279      0.0598
     40  SD         0.5820   26.6230   -2.3450 S.3   279  MET279     -0.1393
     41  CE         0.4000   27.7000   -3.7800 C.3   279  MET279      0.0692
     42  N         11.7130   38.5350   -3.3850 N.3   305  SER305     -0.1217
     43  CA        10.2690   38.4580   -3.1650 C.3   305  SER305      0.1889
     44  C         10.0160   37.6640   -1.8940 C.2   305  SER305      0.2288
     45  O         10.4390   36.5180   -1.7830 O.2   305  SER305     -0.2866
     46  CB         9.5950   37.7540   -4.3500 C.3   305  SER305      0.2089
     47  OG         8.2340   37.4810   -4.0760 O.3   305  SER305     -0.2183
     48  N          4.4610   39.9150   -3.8000 N.3   332  TRP332     -0.1227
     49  CA         4.1780   39.1350   -4.9920 C.3   332  TRP332      0.1737
     50  C          4.9160   39.7830   -6.1590 C.2   332  TRP332      0.2595
     51  O          4.8770   41.0020   -6.3330 O.2   332  TRP332     -0.2718
     52  CB         2.6720   39.1010   -5.2640 C.3   332  TRP332      0.0564
     53  CG         2.3330   38.3620   -6.5110 C.ar  332  TRP332      0.0003
     54  CD1        2.2200   38.8800   -7.7680 C.ar  332  TRP332      0.0946
     55  CD2        2.1130   36.9550   -6.6340 C.ar  332  TRP332      0.0152
     56  NE1        1.9420   37.8810   -8.6680 N.ar  332  TRP332     -0.2442
     57  CE2        1.8700   36.6880   -7.9990 C.ar  332  TRP332      0.0810
     58  CE3        2.0990   35.8900   -5.7230 C.ar  332  TRP332      0.0012
     59  CZ2        1.6150   35.4010   -8.4760 C.ar  332  TRP332      0.0191
     60  CZ3        1.8460   34.6080   -6.1990 C.ar  332  TRP332      0.0001
     61  CH2        1.6080   34.3770   -7.5640 C.ar  332  TRP332      0.0015
     62  N          5.6000   38.9700   -6.9540 N.am  333  ALA333     -0.1966
     63  CA         6.3570   39.5070   -8.0760 C.3   333  ALA333      0.1713
     64  C          5.8800   39.0130   -9.4280 C.2   333  ALA333      0.2458
     65  O          5.3320   37.9200   -9.5450 O.2   333  ALA333     -0.2730
     66  CB         7.8360   39.1680   -7.9080 C.3   333  ALA333      0.0333
     67  N          6.0700   39.8280  -10.4710 N.am  334  PRO334     -0.2716
     68  CA         5.6650   39.4570  -11.8330 C.3   334  PRO334      0.1536
     69  C          6.7810   38.5420  -12.3410 C.2   334  PRO334      0.2598
     70  O          7.5570   38.9060  -13.2250 O.2   334  PRO334     -0.2715
     71  CB         5.6340   40.8020  -12.5500 C.3   334  PRO334      0.0310
     72  CG         6.7680   41.5430  -11.8950 C.3   334  PRO334      0.0237
     73  CD         6.5910   41.2080  -10.4270 C.3   334  PRO334      0.0939
     74  N          6.8530   37.3500  -11.7560 N.am  335  GLN335     -0.1964
     75  CA         7.9110   36.3980  -12.0730 C.3   335  GLN335      0.1733
     76  C          8.3250   36.2060  -13.5280 C.2   335  GLN335      0.2616
     77  O          9.5120   36.2880  -13.8330 O.2   335  GLN335     -0.2715
     78  CB         7.6080   35.0330  -11.4470 C.3   335  GLN335      0.0408
     79  CG         8.7810   34.0780  -11.5770 C.3   335  GLN335      0.0908
     80  CD         8.6760   32.8850  -10.6520 C.2   335  GLN335      0.2608
     81  OE1        8.4900   33.0360   -9.4460 O.2   335  GLN335     -0.2717
     82  NE2        8.8080   31.6930  -11.2120 N.am  335  GLN335     -0.0878
     83  N          7.3870   35.9480  -14.4340 N.am  336  VAL336     -0.1977
     84  CA         7.7930   35.7620  -15.8230 C.3   336  VAL336      0.1596
     85  C          8.4380   36.9960  -16.4150 C.2   336  VAL336      0.2287
     86  O          9.4030   36.8850  -17.1680 O.2   336  VAL336     -0.2864
     87  CB         6.6260   35.3310  -16.7390 C.3   336  VAL336      0.0276
     88  CG1        6.3890   33.8430  -16.5800 C.3   336  VAL336      0.0022
     89  CG2        5.3720   36.1250  -16.4170 C.3   336  VAL336      0.0022
     90  N         12.4370   27.8700   -5.1350 N.3   350  HIS350     -0.1241
     91  CA        11.9680   26.7860   -4.2760 C.3   350  HIS350      0.1621
     92  C         11.8390   25.5250   -5.1240 C.2   350  HIS350      0.2264
     93  O         11.4960   24.4600   -4.6250 O.2   350  HIS350     -0.2867
     94  CB        10.6140   27.1230   -3.6200 C.3   350  HIS350      0.0745
     95  CG         9.4550   27.1560   -4.5710 C.ar  350  HIS350      0.0817
     96  ND1        8.2250   26.6100   -4.2610 N.ar  350  HIS350     -0.2268
     97  CD2        9.3280   27.6870   -5.8100 C.ar  350  HIS350      0.1154
     98  CE1        7.3910   26.8050   -5.2680 C.ar  350  HIS350      0.1986
     99  NE2        8.0360   27.4560   -6.2200 N.ar  350  HIS350     -0.2212
    100  N          9.6660   24.7980   -7.6480 N.3   352  GLY352     -0.1210
    101  CA         8.3470   24.3380   -8.0370 C.3   352  GLY352      0.1956
    102  C          8.5490   24.1290   -9.5320 C.2   352  GLY352      0.2612
    103  O          9.3750   24.8270  -10.1360 O.2   352  GLY352     -0.2717
    104  N          7.8160   23.2040  -10.1470 N.am  353  TRP353     -0.1962
    105  CA         8.0290   22.9240  -11.5660 C.3   353  TRP353      0.1771
    106  C          7.8050   24.0750  -12.5560 C.2   353  TRP353      0.2620
    107  O          8.5750   24.2360  -13.5010 O.2   353  TRP353     -0.2715
    108  CB         7.2020   21.7070  -11.9870 C.3   353  TRP353      0.0590
    109  CG         7.6720   21.1180  -13.2810 C.ar  353  TRP353      0.0006
    110  CD1        6.9210   20.8900  -14.3940 C.ar  353  TRP353      0.0946
    111  CD2        9.0080   20.7090  -13.6040 C.ar  353  TRP353      0.0152
    112  NE1        7.7040   20.3680  -15.3950 N.ar  353  TRP353     -0.2442
    113  CE2        8.9900   20.2450  -14.9380 C.ar  353  TRP353      0.0810
    114  CE3       10.2220   20.6910  -12.8950 C.ar  353  TRP353      0.0012
    115  CZ2       10.1370   19.7680  -15.5860 C.ar  353  TRP353      0.0191
    116  CZ3       11.3650   20.2180  -13.5380 C.ar  353  TRP353      0.0001
    117  CH2       11.3130   19.7620  -14.8720 C.ar  353  TRP353      0.0015
    118  N          6.7640   24.8760  -12.3600 N.am  354  ASN354     -0.1958
    119  CA         6.5240   25.9890  -13.2710 C.3   354  ASN354      0.1819
    120  C          7.6810   26.9910  -13.2010 C.2   354  ASN354      0.2622
    121  O          8.0990   27.5320  -14.2290 O.2   354  ASN354     -0.2715
    122  CB         5.2050   26.6960  -12.9330 C.3   354  ASN354      0.1195
    123  CG         3.9890   25.8150  -13.1780 C.2   354  ASN354      0.2630
    124  OD1        3.7800   25.3200  -14.2800 O.2   354  ASN354     -0.2716
    125  ND2        3.1790   25.6260  -12.1470 N.am  354  ASN354     -0.0877
    126  N          8.1920   27.2450  -11.9960 N.am  355  SER355     -0.1950
    127  CA         9.3090   28.1770  -11.8370 C.3   355  SER355      0.1924
    128  C         10.5390   27.6290  -12.5500 C.2   355  SER355      0.2314
    129  O         11.3060   28.3850  -13.1490 O.2   355  SER355     -0.2863
    130  CB         9.6380   28.4100  -10.3570 C.3   355  SER355      0.2116
    131  OG         8.6350   29.1890   -9.7220 O.3   355  SER355     -0.2180
    132  N          9.9410   28.0300  -16.3370 N.3   358  GLU358     -0.1245
    133  CA        10.0660   29.4350  -16.7100 C.3   358  GLU358      0.1567
    134  C         11.5280   29.8700  -16.7170 C.2   358  GLU358      0.2260
    135  O         11.9580   30.6130  -17.5940 O.2   358  GLU358     -0.2867
    136  CB         9.2520   30.3070  -15.7490 C.3   358  GLU358      0.0388
    137  CG         7.7740   29.9350  -15.7430 C.3   358  GLU358      0.1160
    138  CD         6.9780   30.6170  -14.6440 C.2   358  GLU358      0.3649
    139  OE1        7.5790   31.1220  -13.6650 O.co2 358  GLU358     -0.2457
    140  OE2        5.7360   30.6240  -14.7530 O.co2 358  GLU358     -0.2457
    141  N          8.5750   22.3180   -0.2930 N.3   372  TYR372     -0.1241
    142  CA         7.4810   21.3410   -0.1960 C.3   372  TYR372      0.1605
    143  C          7.1410   20.5950   -1.5000 C.2   372  TYR372      0.2264
    144  O          7.8290   20.7430   -2.5080 O.2   372  TYR372     -0.2867
    145  CB         6.2150   22.0320    0.3380 C.3   372  TYR372      0.0534
    146  CG         5.7920   23.2420   -0.4650 C.ar  372  TYR372     -0.0201
    147  CD1        6.3250   24.5010   -0.2000 C.ar  372  TYR372     -0.0009
    148  CD2        4.8870   23.1160   -1.5260 C.ar  372  TYR372     -0.0009
    149  CE1        5.9740   25.6080   -0.9710 C.ar  372  TYR372      0.0417
    150  CE2        4.5300   24.2170   -2.3070 C.ar  372  TYR372      0.0417
    151  CZ         5.0800   25.4570   -2.0250 C.ar  372  TYR372      0.1957
    152  OH         4.7680   26.5390   -2.8180 O.3   372  TYR372     -0.2866
    153  N          9.3990   19.3230   -4.6340 N.3   375  GLN375     -0.1245
    154  CA        10.4820   20.2640   -4.8910 C.3   375  GLN375      0.1566
    155  C         11.8890   19.7290   -4.6250 C.2   375  GLN375      0.2260
    156  O         12.8280   20.0590   -5.3480 O.2   375  GLN375     -0.2867
    157  CB        10.2410   21.5430   -4.0940 C.3   375  GLN375      0.0367
    158  CG         9.1490   22.4110   -4.6910 C.3   375  GLN375      0.0905
    159  CD         8.4570   23.2700   -3.6590 C.2   375  GLN375      0.2608
    160  OE1        9.0660   23.7000   -2.6810 O.2   375  GLN375     -0.2717
    161  NE2        7.1740   23.5350   -3.8770 N.am  375  GLN375     -0.0878
@<TRIPOS>BOND
     1   135   134    2
     2    86    85    2
     3     5     6    1
     4    87    88    1
     5    87    89    1
     6    87    84    1
     7   134   133    1
     8   133   132    1
     9   133   136    1
    10    85    84    1
    11     8     7    2
    12    84    83    1
    13   136   137    1
    14   137   138    1
    15     6     7    1
    16   115   113   ar
    17   115   117   ar
    18   112   113   ar
    19   112   110   ar
    20     7     9   am
    21   113   111   ar
    22   117   116   ar
    23   140   138   ar
    24   138   139   ar
    25    83    76   am
    26   110   109   ar
    27   124   123    2
    28   121   120    2
    29     9    10    1
    30    77    76    2
    31   111   109   ar
    32   111   114   ar
    33   116   114   ar
    34    76    75    1
    35   107   106    2
    36    10    11    1
    37    10    13    1
    38    11    12    2
    39   109   108    1
    40   119   120    1
    41   119   122    1
    42   119   118    1
    43    70    69    2
    44   120   126   am
    45   123   122    1
    46   123   125   am
    47   129   128    2
    48   106   118   am
    49   106   105    1
    50   128   127    1
    51    71    72    1
    52    71    68    1
    53    69    68    1
    54    69    74   am
    55    75    74    1
    56    75    78    1
    57     4     3    2
    58   126   127    1
    59   108   105    1
    60    13    14    1
    61    72    73    1
    62   127   130    1
    63    68    67    1
    64    79    78    1
    65    79    80    1
    66   105   104    1
    67    14    15    1
    68    82    80   am
    69     3     2    1
    70    80    81    2
    71    67    73    1
    72    67    64   am
    73   130   131    1
    74   104   102   am
    75   103   102    2
    76     2     1    1
    77    15    17   am
    78    15    16    2
    79    65    64    2
    80   102   101    1
    81    64    63    1
    82    56    57   ar
    83    56    54   ar
    84    59    57   ar
    85    59    61   ar
    86    63    66    1
    87    63    62    1
    88   101   100    1
    89    57    55   ar
    90    54    53   ar
    91    61    60   ar
    92    62    50   am
    93    55    53   ar
    94    55    58   ar
    95    53    52    1
    96    22    23    1
    97    22    19    1
    98    51    50    2
    99    99    97   ar
   100    99    98   ar
   101    60    58   ar
   102    50    49    1
   103    33    32    1
   104    97    95   ar
   105    32    29    1
   106    21    20    2
   107   156   155    2
   108    98    96   ar
   109    52    49    1
   110    18    19    1
   111    90    91    1
   112    92    93    2
   113    92    91    1
   114    19    20    1
   115    49    48    1
   116   154   153    1
   117   154   155    1
   118   154   157    1
   119    25    24    1
   120    25    26    1
   121   158   157    1
   122   158   159    1
   123    28    26   am
   124    28    29    1
   125    95    96   ar
   126    95    94    1
   127    26    27    2
   128    29    30    1
   129    46    47    1
   130    46    43    1
   131    91    94    1
   132   161   159   am
   133    41    40    1
   134   159   160    2
   135    42    43    1
   136    30    31    2
   137    30    34   am
   138    43    44    1
   139   152   151    1
   140   144   143    2
   141    34    35    1
   142    40    39    1
   143   150   151   ar
   144   150   148   ar
   145   151   149   ar
   146    44    45    2
   147    39    38    1
   148   148   146   ar
   149   143   142    1
   150    35    38    1
   151    35    36    1
   152   149   147   ar
   153   146   147   ar
   154   146   145    1
   155   141   142    1
   156   142   145    1
   157    36    37    2
