@<TRIPOS>MOLECULE
tmp/2acwA00.pdb
 198 195 0 0 0
SMALL
GASTEIGER

@<TRIPOS>ATOM
      1  N         38.4110   22.2970   35.3200 N.3    18  ILE18      -0.1231
      2  CA        37.5210   22.9360   36.2840 C.3    18  ILE18       0.1692
      3  C         36.1430   22.3060   36.1160 C.2    18  ILE18       0.2593
      4  O         35.9060   21.5740   35.1560 O.2    18  ILE18      -0.2718
      5  CB        37.4280   24.4610   36.0170 C.3    18  ILE18       0.0266
      6  CG1       36.6890   25.1670   37.1560 C.3    18  ILE18       0.0019
      7  CG2       36.7270   24.7150   34.7000 C.3    18  ILE18       0.0020
      8  CD1       36.7240   26.6920   37.0570 C.3    18  ILE18       0.0001
      9  N         35.2270   22.5910   37.0320 N.am   19  GLY19      -0.1942
     10  CA        33.9060   21.9950   36.9280 C.3    19  GLY19       0.2014
     11  C         33.9580   20.6290   37.5850 C.2    19  GLY19       0.2638
     12  O         32.9650   20.1290   38.1170 O.2    19  GLY19      -0.2714
     13  N         35.1440   20.0310   37.5410 N.am   20  HIS20      -0.1973
     14  CA        35.3900   18.7310   38.1470 C.3    20  HIS20       0.1656
     15  C         36.5220   18.8280   39.1710 C.2    20  HIS20       0.2291
     16  O         36.4850   18.1740   40.2090 O.2    20  HIS20      -0.2864
     17  CB        35.7460   17.7070   37.0650 C.3    20  HIS20       0.0771
     18  CG        34.5540   17.0730   36.4210 C.ar   20  HIS20       0.0820
     19  ND1       33.7130   16.2190   37.0990 N.ar   20  HIS20      -0.2267
     20  CD2       34.0630   17.1650   35.1640 C.ar   20  HIS20       0.1154
     21  CE1       32.7550   15.8110   36.2860 C.ar   20  HIS20       0.1986
     22  NE2       32.9440   16.3700   35.1060 N.ar   20  HIS20      -0.2212
     23  N         37.7520   21.9620   40.5490 N.3    22  ALA22      -0.1245
     24  CA        37.4560   22.9680   41.5590 C.3    22  ALA22       0.1562
     25  C         36.6900   22.3660   42.7290 C.2    22  ALA22       0.2260
     26  O         37.0110   22.6440   43.8810 O.2    22  ALA22      -0.2867
     27  CB        36.6770   24.1100   40.9460 C.3    22  ALA22       0.0290
     28  N         30.5890   15.2930   41.4900 N.3   141  THR141     -0.1203
     29  CA        30.5420   16.7360   41.2560 C.3   141  THR141      0.1994
     30  C         29.1830   17.1770   40.7300 C.2   141  THR141      0.2618
     31  O         28.9600   18.3580   40.5120 O.2   141  THR141     -0.2717
     32  CB        31.6140   17.1750   40.2290 C.3   141  THR141      0.1784
     33  OG1       31.5900   16.2740   39.1190 O.3   141  THR141     -0.2211
     34  CG2       33.0170   17.1820   40.8530 C.3   141  THR141      0.0376
     35  N         28.2850   16.2240   40.5060 N.am  142  SER142     -0.1951
     36  CA        26.9470   16.5400   40.0200 C.3   142  SER142      0.1924
     37  C         26.0060   16.3700   41.2000 C.2   142  SER142      0.2314
     38  O         26.4650   16.2860   42.3320 O.2   142  SER142     -0.2863
     39  CB        26.5480   15.6040   38.8780 C.3   142  SER142      0.2116
     40  OG        25.3020   15.9880   38.3200 O.3   142  SER142     -0.2180
     41  N         26.6490   32.8290   30.2940 N.3   280  CYS280     -0.1235
     42  CA        27.8540   32.0100   30.2770 C.3   280  CYS280      0.1677
     43  C         27.4790   30.5530   30.0430 C.2   280  CYS280      0.2270
     44  O         26.6140   29.9930   30.7250 O.2   280  CYS280     -0.2867
     45  CB        28.6300   32.1520   31.5880 C.3   280  CYS280      0.0956
     46  SG        30.3950   31.8160   31.3910 S.3   280  CYS280     -0.0801
     47  N         29.4660   27.5940   30.2460 N.3   282  GLY282     -0.1210
     48  CA        30.5270   26.6830   30.6300 C.3   282  GLY282      0.1956
     49  C         31.9480   27.0550   30.2680 C.2   282  GLY282      0.2613
     50  O         32.2090   28.0710   29.6080 O.2   282  GLY282     -0.2717
     51  N         32.8650   26.1940   30.7060 N.am  283  SER283     -0.1938
     52  CA        34.3000   26.3530   30.4850 C.3   283  SER283      0.2055
     53  C         34.8130   25.4890   29.3420 C.2   283  SER283      0.2642
     54  O         35.8640   25.7710   28.7660 O.2   283  SER283     -0.2714
     55  CB        35.0560   25.9720   31.7530 C.3   283  SER283      0.2130
     56  OG        34.6970   24.6600   32.1530 O.3   283  SER283     -0.2179
     57  N         34.0750   24.4280   29.0290 N.am  284  MET284     -0.1976
     58  CA        34.4540   23.5030   27.9660 C.3   284  MET284      0.1605
     59  C         34.7020   24.2250   26.6460 C.2   284  MET284      0.2287
     60  O         35.0980   23.6040   25.6600 O.2   284  MET284     -0.2864
     61  CB        33.3620   22.4470   27.7710 C.3   284  MET284      0.0413
     62  CG        32.9690   21.7000   29.0360 C.3   284  MET284      0.0598
     63  SD        34.2260   20.5760   29.6630 S.3   284  MET284     -0.1393
     64  CE        33.7660   19.0360   28.8040 C.3   284  MET284      0.0692
     65  N         29.6370   36.1930   27.8620 N.3   310  SER310     -0.1217
     66  CA        30.9140   35.5280   27.7640 C.3   310  SER310      0.1889
     67  C         30.8600   34.6320   26.5330 C.2   310  SER310      0.2288
     68  O         29.9460   33.8270   26.3760 O.2   310  SER310     -0.2866
     69  CB        31.1800   34.6950   29.0220 C.3   310  SER310      0.2089
     70  OG        32.3800   33.9610   28.8860 O.3   310  SER310     -0.2183
     71  N         36.7310   34.8540   28.8770 N.3   337  TRP337     -0.1227
     72  CA        36.5240   34.0110   30.0390 C.3   337  TRP337      0.1737
     73  C         36.0060   34.9960   31.0740 C.2   337  TRP337      0.2595
     74  O         36.2090   36.2060   30.9370 O.2   337  TRP337     -0.2718
     75  CB        37.8380   33.3520   30.4680 C.3   337  TRP337      0.0564
     76  CG        37.7690   32.6200   31.7740 C.ar  337  TRP337      0.0003
     77  CD1       38.1280   33.1070   33.0000 C.ar  337  TRP337      0.0946
     78  CD2       37.3560   31.2630   31.9900 C.ar  337  TRP337      0.0152
     79  NE1       37.9710   32.1370   33.9630 N.ar  337  TRP337     -0.2442
     80  CE2       37.5000   30.9960   33.3720 C.ar  337  TRP337      0.0810
     81  CE3       36.8810   30.2490   31.1540 C.ar  337  TRP337      0.0012
     82  CZ2       37.1910   29.7500   33.9370 C.ar  337  TRP337      0.0191
     83  CZ3       36.5710   29.0080   31.7160 C.ar  337  TRP337      0.0001
     84  CH2       36.7310   28.7720   33.0950 C.ar  337  TRP337      0.0015
     85  N         35.3360   34.5030   32.1050 N.am  338  ALA338     -0.1966
     86  CA        34.7700   35.4170   33.0810 C.3   338  ALA338      0.1713
     87  C         34.9620   35.0950   34.5630 C.2   338  ALA338      0.2458
     88  O         35.0830   33.9480   34.9560 O.2   338  ALA338     -0.2730
     89  CB        33.2740   35.5640   32.7920 C.3   338  ALA338      0.0333
     90  N         35.0160   36.1280   35.4050 N.am  339  PRO339     -0.2716
     91  CA        35.1700   35.8950   36.8380 C.3   339  PRO339      0.1536
     92  C         33.7290   35.6130   37.2890 C.2   339  PRO339      0.2598
     93  O         33.1210   36.3920   38.0190 O.2   339  PRO339     -0.2715
     94  CB        35.6990   37.2360   37.3340 C.3   339  PRO339      0.0310
     95  CG        34.9750   38.2030   36.4550 C.3   339  PRO339      0.0237
     96  CD        35.1760   37.5590   35.0940 C.3   339  PRO339      0.0939
     97  N         33.1890   34.4990   36.8170 N.am  340  GLN340     -0.1964
     98  CA        31.8150   34.1190   37.0980 C.3   340  GLN340      0.1733
     99  C         31.2840   34.2900   38.5210 C.2   340  GLN340      0.2616
    100  O         30.1830   34.8330   38.7130 O.2   340  GLN340     -0.2715
    101  CB        31.5670   32.6930   36.6240 C.3   340  GLN340      0.0408
    102  CG        30.1050   32.3190   36.6230 C.3   340  GLN340      0.0908
    103  CD        29.8240   31.0790   35.8210 C.2   340  GLN340      0.2608
    104  OE1       30.2010   30.9880   34.6640 O.2   340  GLN340     -0.2717
    105  NE2       29.1480   30.1190   36.4300 N.am  340  GLN340     -0.0878
    106  N         32.0140   33.8320   39.5290 N.am  341  VAL341     -0.1977
    107  CA        31.4960   34.0220   40.8800 C.3   341  VAL341      0.1596
    108  C         31.5530   35.4950   41.2890 C.2   341  VAL341      0.2287
    109  O         30.6840   35.9730   42.0200 O.2   341  VAL341     -0.2864
    110  CB        32.2430   33.1570   41.9170 C.3   341  VAL341      0.0276
    111  CG1       32.0150   31.6890   41.5900 C.3   341  VAL341      0.0022
    112  CG2       33.7370   33.5000   41.9280 C.3   341  VAL341      0.0022
    113  N         24.1610   27.3850   30.7810 N.3   355  HIS355     -0.1241
    114  CA        24.0920   26.1100   30.0940 C.3   355  HIS355      0.1621
    115  C         23.7280   25.0410   31.1130 C.2   355  HIS355      0.2264
    116  O         23.6460   23.8560   30.8040 O.2   355  HIS355     -0.2867
    117  CB        25.4330   25.8080   29.4000 C.3   355  HIS355      0.0745
    118  CG        26.5100   25.3190   30.3140 C.ar  355  HIS355      0.0817
    119  ND1       26.6030   25.6980   31.6370 N.ar  355  HIS355     -0.2268
    120  CD2       27.5490   24.4790   30.0880 C.ar  355  HIS355      0.1154
    121  CE1       27.6510   25.1080   32.1860 C.ar  355  HIS355      0.1986
    122  NE2       28.2410   24.3630   31.2670 N.ar  355  HIS355     -0.2212
    123  N         25.3710   23.8900   33.9810 N.3   357  GLY357     -0.1210
    124  CA        26.3410   22.9850   34.5740 C.3   357  GLY357      0.1956
    125  C         26.0300   22.9970   36.0630 C.2   357  GLY357      0.2612
    126  O         25.4270   23.9520   36.5620 O.2   357  GLY357     -0.2717
    127  N         26.4230   21.9620   36.7940 N.am  358  TRP358     -0.1962
    128  CA        26.1010   21.9270   38.2160 C.3   358  TRP358      0.1771
    129  C         26.7790   23.0060   39.0610 C.2   358  TRP358      0.2620
    130  O         26.1410   23.6030   39.9300 O.2   358  TRP358     -0.2715
    131  CB        26.3870   20.5430   38.8090 C.3   358  TRP358      0.0590
    132  CG        25.7110   20.3670   40.1370 C.ar  358  TRP358      0.0006
    133  CD1       26.2930   19.9630   41.3070 C.ar  358  TRP358      0.0946
    134  CD2       24.3390   20.6640   40.4490 C.ar  358  TRP358      0.0152
    135  NE1       25.3690   19.9960   42.3260 N.ar  358  TRP358     -0.2442
    136  CE2       24.1630   20.4220   41.8290 C.ar  358  TRP358      0.0810
    137  CE3       23.2450   21.1110   39.6970 C.ar  358  TRP358      0.0012
    138  CZ2       22.9300   20.6150   42.4770 C.ar  358  TRP358      0.0191
    139  CZ3       22.0110   21.3020   40.3420 C.ar  358  TRP358      0.0001
    140  CH2       21.8690   21.0540   41.7170 C.ar  358  TRP358      0.0015
    141  N         28.0600   23.2570   38.8280 N.am  359  ASN359     -0.1958
    142  CA        28.7470   24.2990   39.5950 C.3   359  ASN359      0.1819
    143  C         28.0780   25.6440   39.3660 C.2   359  ASN359      0.2622
    144  O         27.8320   26.3920   40.3080 O.2   359  ASN359     -0.2715
    145  CB        30.2240   24.3750   39.2090 C.3   359  ASN359      0.1195
    146  CG        31.0020   23.1950   39.7280 C.2   359  ASN359      0.2630
    147  OD1       31.1550   23.0300   40.9460 O.2   359  ASN359     -0.2716
    148  ND2       31.4790   22.3530   38.8210 N.am  359  ASN359     -0.0877
    149  N         27.7750   25.9350   38.1070 N.am  360  SER360     -0.1950
    150  CA        27.1180   27.1710   37.7510 C.3   360  SER360      0.1924
    151  C         25.7800   27.3000   38.4780 C.2   360  SER360      0.2314
    152  O         25.4650   28.3600   39.0330 O.2   360  SER360     -0.2863
    153  CB        26.9020   27.2300   36.2400 C.3   360  SER360      0.2116
    154  OG        28.1400   27.3440   35.5590 O.3   360  SER360     -0.2180
    155  N         26.4220   27.9870   42.1420 N.3   363  GLU363     -0.1245
    156  CA        26.9180   29.3450   42.3940 C.3   363  GLU363      0.1567
    157  C         25.7930   30.3470   42.2370 C.2   363  GLU363      0.2260
    158  O         25.7140   31.3340   42.9610 O.2   363  GLU363     -0.2867
    159  CB        28.0410   29.6920   41.4170 C.3   363  GLU363      0.0388
    160  CG        29.1220   28.6540   41.4200 C.3   363  GLU363      0.1160
    161  CD        30.1840   28.9170   40.4140 C.2   363  GLU363      0.3649
    162  OE1       29.8670   29.1400   39.2230 O.co2 363  GLU363     -0.2457
    163  OE2       31.3510   28.8890   40.8260 O.co2 363  GLU363     -0.2457
    164  N         25.1450   20.0980   26.8020 N.3   377  TYR377     -0.1227
    165  CA        25.6990   18.7470   26.7880 C.3   377  TYR377      0.1736
    166  C         25.6370   18.1010   28.1570 C.2   377  TYR377      0.2595
    167  O         25.1580   18.7020   29.1160 O.2   377  TYR377     -0.2718
    168  CB        27.1530   18.7560   26.2970 C.3   377  TYR377      0.0548
    169  CG        28.0270   19.8250   26.9210 C.ar  377  TYR377     -0.0200
    170  CD1       28.0860   21.1120   26.3760 C.ar  377  TYR377     -0.0009
    171  CD2       28.7760   19.5630   28.0720 C.ar  377  TYR377     -0.0009
    172  CE1       28.8670   22.1130   26.9670 C.ar  377  TYR377      0.0417
    173  CE2       29.5570   20.5540   28.6680 C.ar  377  TYR377      0.0417
    174  CZ        29.5990   21.8260   28.1160 C.ar  377  TYR377      0.1957
    175  OH        30.3550   22.8130   28.7190 O.3   377  TYR377     -0.2866
    176  N         26.1090   16.8650   28.2450 N.am  378  ALA378     -0.1966
    177  CA        26.1310   16.1470   29.5120 C.3   378  ALA378      0.1728
    178  C         24.7530   16.0140   30.1750 C.2   378  ALA378      0.2616
    179  O         23.7600   15.7230   29.5070 O.2   378  ALA378     -0.2715
    180  CB        27.1160   16.8280   30.4530 C.3   378  ALA378      0.0334
    181  N         24.6930   16.2320   31.4840 N.am  379  GLU379     -0.1963
    182  CA        23.4400   16.1030   32.2200 C.3   379  GLU379      0.1733
    183  C         22.7240   17.4430   32.3890 C.2   379  GLU379      0.2616
    184  O         21.7350   17.5560   33.1250 O.2   379  GLU379     -0.2715
    185  CB        23.6980   15.4490   33.5980 C.3   379  GLU379      0.0429
    186  CG        23.8370   16.4060   34.7980 C.3   379  GLU379      0.1163
    187  CD        25.2270   17.0120   34.9520 C.2   379  GLU379      0.3649
    188  OE1       26.0450   16.8850   34.0140 O.co2 379  GLU379     -0.2457
    189  OE2       25.4980   17.6150   36.0140 O.co2 379  GLU379     -0.2457
    190  N         23.2190   18.4540   31.6850 N.am  380  GLN380     -0.1977
    191  CA        22.6510   19.7970   31.7590 C.3   380  GLN380      0.1601
    192  C         21.1560   19.8510   31.5510 C.2   380  GLN380      0.2287
    193  O         20.4560   20.6140   32.2140 O.2   380  GLN380     -0.2864
    194  CB        23.3340   20.6930   30.7400 C.3   380  GLN380      0.0394
    195  CG        24.6820   21.1550   31.1920 C.3   380  GLN380      0.0908
    196  CD        25.6270   21.3530   30.0520 C.2   380  GLN380      0.2608
    197  OE1       25.2500   21.8770   29.0100 O.2   380  GLN380     -0.2717
    198  NE2       26.8730   20.9390   30.2370 N.am  380  GLN380     -0.0878
@<TRIPOS>BOND
     1    60    59    2
     2   168   165    1
     3   168   169    1
     4   170   169   ar
     5   170   172   ar
     6    68    67    2
     7    67    66    1
     8    59    58    1
     9   165   164    1
    10   165   166    1
    11   169   171   ar
    12   172   174   ar
    13    66    65    1
    14    66    69    1
    15    61    58    1
    16    61    62    1
    17    58    57    1
    18   171   173   ar
    19   174   173   ar
    20   174   175    1
    21   166   176   am
    22   166   167    2
    23   176   177    1
    24    54    53    2
    25    64    63    1
    26    71    72    1
    27    70    69    1
    28   197   196    2
    29    57    53   am
    30    62    63    1
    31    53    52    1
    32   117   114    1
    33   117   118    1
    34   179   178    2
    35   177   178    1
    36   177   180    1
    37    50    49    2
    38    72    75    1
    39    72    73    1
    40    43    42    1
    41    43    44    2
    42   196   198   am
    43   196   195    1
    44   120   118   ar
    45   120   122   ar
    46   114   113    1
    47   114   115    1
    48   178   181   am
    49    47    48    1
    50    49    48    1
    51    49    51   am
    52    42    41    1
    53    42    45    1
    54   118   119   ar
    55    75    76    1
    56    52    51    1
    57    52    55    1
    58   194   195    1
    59   194   191    1
    60   116   115    2
    61    74    73    2
    62    73    85   am
    63    81    83   ar
    64    81    78   ar
    65   122   121   ar
    66    46    45    1
    67   181   182    1
    68   192   191    1
    69   192   193    2
    70   119   121   ar
    71   190   191    1
    72   190   183   am
    73    83    84   ar
    74    55    56    1
    75    76    78   ar
    76    76    77   ar
    77    78    80   ar
    78    85    86    1
    79   182   183    1
    80   182   185    1
    81   183   184    2
    82    89    86    1
    83    77    79   ar
    84    86    87    1
    85    84    82   ar
    86    80    82   ar
    87    80    79   ar
    88   185   186    1
    89   123   124    1
    90   188   187   ar
    91    87    88    2
    92    87    90   am
    93   124   125    1
    94   104   103    2
    95     7     5    1
    96   186   187    1
    97   187   189   ar
    98    96    90    1
    99    96    95    1
   100    22    20   ar
   101    22    21   ar
   102     4     3    2
   103    20    18   ar
   104     1     2    1
   105    90    91    1
   106   154   153    1
   107   103   105   am
   108   103   102    1
   109     5     2    1
   110     5     6    1
   111   125   126    2
   112   125   127   am
   113     3     2    1
   114     3     9   am
   115   153   150    1
   116    21    19   ar
   117    18    17    1
   118    18    19   ar
   119    95    94    1
   120   102   101    1
   121   101    98    1
   122   127   128    1
   123    97    98    1
   124    97    92   am
   125    91    92    1
   126    91    94    1
   127    10     9    1
   128    10    11    1
   129     8     6    1
   130    17    14    1
   131    98    99    1
   132    92    93    2
   133    13    11   am
   134    13    14    1
   135    11    12    2
   136   150   149    1
   137   150   151    1
   138   149   143   am
   139    14    15    1
   140   128   131    1
   141   128   129    1
   142    40    39    1
   143   151   152    2
   144    99   100    2
   145    99   106   am
   146   131   132    1
   147   148   146   am
   148   141   129   am
   149   141   142    1
   150    39    36    1
   151   129   130    2
   152    33    32    1
   153    15    16    2
   154   145   142    1
   155   145   146    1
   156   162   161   ar
   157   143   142    1
   158   143   144    2
   159   106   107    1
   160   137   139   ar
   161   137   134   ar
   162   146   147    2
   163    36    35    1
   164    36    37    1
   165   132   134   ar
   166   132   133   ar
   167    32    34    1
   168    32    29    1
   169   139   140   ar
   170   161   163   ar
   171   161   160    1
   172   134   136   ar
   173    35    30   am
   174    31    30    2
   175    23    24    1
   176    30    29    1
   177   107   108    1
   178   107   110    1
   179    27    24    1
   180    37    38    2
   181    29    28    1
   182   108   109    2
   183   133   135   ar
   184   159   160    1
   185   159   156    1
   186    24    25    1
   187   111   110    1
   188   140   138   ar
   189   136   135   ar
   190   136   138   ar
   191   110   112    1
   192   155   156    1
   193   157   156    1
   194   157   158    2
   195    25    26    2
