@<TRIPOS>MOLECULE
tmp/2acxB00.pdb
 171 160 0 0 0
SMALL
GASTEIGER

@<TRIPOS>ATOM
      1  N         29.0860   -1.7050   75.1220 N.3   172  LEU172     -0.1231
      2  CA        28.7900   -0.8310   76.2460 C.3   172  LEU172      0.1693
      3  C         29.1910   -1.4760   77.5600 C.2   172  LEU172      0.2593
      4  O         29.7270   -0.8000   78.4110 O.2   172  LEU172     -0.2718
      5  CB        27.3020   -0.4620   76.2470 C.3   172  LEU172      0.0284
      6  CG        26.8510    0.4160   75.0720 C.3   172  LEU172      0.0019
      7  CD1       25.4100    0.8830   75.2320 C.3   172  LEU172      0.0001
      8  CD2       27.7750    1.6270   74.8830 C.3   172  LEU172      0.0001
      9  N         28.9410   -2.7810   77.6990 N.am  173  GLY173     -0.1942
     10  CA        29.3840   -3.5650   78.8570 C.3   173  GLY173      0.2014
     11  C         29.1520   -5.0630   78.6820 C.2   173  GLY173      0.2639
     12  O         28.6010   -5.5090   77.6780 O.2   173  GLY173     -0.2714
     13  N         29.5600   -5.8460   79.6730 N.am  174  LYS174     -0.1963
     14  CA        29.5070   -7.3050   79.5660 C.3   174  LYS174      0.1728
     15  C         28.5350   -7.8410   80.5900 C.2   174  LYS174      0.2617
     16  O         28.5800   -7.4620   81.7590 O.2   174  LYS174     -0.2715
     17  CB        30.8840   -7.9600   79.8010 C.3   174  LYS174      0.0311
     18  CG        32.0390   -7.4150   78.9770 C.3   174  LYS174      0.0038
     19  CD        32.0710   -7.9650   77.5680 C.3   174  LYS174      0.0206
     20  CE        33.4550   -7.8210   76.9710 C.3   174  LYS174      0.1093
     21  NZ        34.4730   -8.5760   77.8190 N.3   174  LYS174     -0.1314
     22  N         27.6590   -8.7260   80.1180 N.am  175  GLY175     -0.1940
     23  CA        26.5880   -9.3290   80.9220 C.3   175  GLY175      0.2014
     24  C         26.6530  -10.8580   80.9370 C.2   175  GLY175      0.2639
     25  O         26.9310  -11.4830   79.9120 O.2   175  GLY175     -0.2714
     26  N         26.3300  -11.4540   82.0860 N.am  176  GLY176     -0.1939
     27  CA        26.4790  -12.8950   82.3340 C.3   176  GLY176      0.2014
     28  C         26.3140  -13.8350   81.1500 C.2   176  GLY176      0.2638
     29  O         26.9960  -14.8750   81.0890 O.2   176  GLY176     -0.2714
     30  N         25.4270  -13.4910   80.2150 N.am  177  PHE177     -0.1973
     31  CA        25.1970  -14.3270   79.0450 C.3   177  PHE177      0.1639
     32  C         25.7140  -13.7410   77.7210 C.2   177  PHE177      0.2290
     33  O         25.6240  -14.3980   76.6750 O.2   177  PHE177     -0.2864
     34  CB        23.7070  -14.6680   78.9400 C.3   177  PHE177      0.0560
     35  CG        23.2040  -15.5570   80.0580 C.ar  177  PHE177     -0.0200
     36  CD1       22.1940  -15.1140   80.9230 C.ar  177  PHE177     -0.0042
     37  CD2       23.7370  -16.8430   80.2400 C.ar  177  PHE177     -0.0042
     38  CE1       21.7360  -15.9470   81.9640 C.ar  177  PHE177     -0.0003
     39  CE2       23.2840  -17.6790   81.2640 C.ar  177  PHE177     -0.0003
     40  CZ        22.2980  -17.2410   82.1310 C.ar  177  PHE177     -0.0000
     41  N         26.5980   -6.2920   75.9400 N.3   180  VAL180     -0.1245
     42  CA        25.6550   -5.2690   75.6310 C.3   180  VAL180      0.1561
     43  C         26.3870   -4.1930   74.8660 C.2   180  VAL180      0.2260
     44  O         27.4330   -3.7120   75.2840 O.2   180  VAL180     -0.2867
     45  CB        25.1160   -4.6360   76.9060 C.3   180  VAL180      0.0252
     46  CG1       24.2840   -3.3960   76.5740 C.3   180  VAL180      0.0019
     47  CG2       24.3280   -5.6690   77.7270 C.3   180  VAL180      0.0019
     48  N         20.0760    0.1730   73.1160 N.3   193  ALA193     -0.1245
     49  CA        21.0750   -0.7530   73.6050 C.3   193  ALA193      0.1562
     50  C         20.6350   -2.1290   73.1550 C.2   193  ALA193      0.2260
     51  O         19.4440   -2.4070   72.9960 O.2   193  ALA193     -0.2867
     52  CB        21.1740   -0.6960   75.1190 C.3   193  ALA193      0.0290
     53  N         21.2910   -6.1390   74.1830 N.3   195  LYS195     -0.1245
     54  CA        21.8310   -7.1050   75.0970 C.3   195  LYS195      0.1561
     55  C         21.7710   -8.4510   74.4160 C.2   195  LYS195      0.2260
     56  O         20.7110   -8.9000   74.0090 O.2   195  LYS195     -0.2867
     57  CB        21.0360   -7.1160   76.4170 C.3   195  LYS195      0.0271
     58  CG        21.5390   -8.1010   77.5230 C.3   195  LYS195      0.0035
     59  CD        20.8800   -7.8140   78.8870 C.3   195  LYS195      0.0206
     60  CE        20.6100   -9.0890   79.7240 C.3   195  LYS195      0.1093
     61  NZ        19.8070   -8.8090   80.9960 N.3   195  LYS195     -0.1314
     62  N         22.4140  -12.5310   74.5010 N.3   197  LEU197     -0.1245
     63  CA        22.5520  -13.7540   75.2740 C.3   197  LEU197      0.1561
     64  C         22.9770  -14.8260   74.3000 C.2   197  LEU197      0.2260
     65  O         22.2800  -15.0810   73.3260 O.2   197  LEU197     -0.2867
     66  CB        21.2290  -14.1860   75.9150 C.3   197  LEU197      0.0270
     67  CG        20.2440  -13.1340   76.4440 C.3   197  LEU197      0.0019
     68  CD1       19.0610  -13.8460   77.1010 C.3   197  LEU197      0.0001
     69  CD2       20.8760  -12.1500   77.4260 C.3   197  LEU197      0.0001
     70  N         12.6490  -12.8260   81.7440 N.3   214  GLU214     -0.1245
     71  CA        13.1080  -11.4360   81.6670 C.3   214  GLU214      0.1567
     72  C         12.4500  -10.7500   80.4570 C.2   214  GLU214      0.2260
     73  O         12.0040   -9.5970   80.5320 O.2   214  GLU214     -0.2867
     74  CB        14.6480  -11.3540   81.5600 C.3   214  GLU214      0.0388
     75  CG        15.2640   -9.9450   81.6980 C.3   214  GLU214      0.1160
     76  CD        16.8090   -9.9270   81.6290 C.2   214  GLU214      0.3649
     77  OE1       17.4680  -10.8890   82.1460 O.co2 214  GLU214     -0.2457
     78  OE2       17.3720   -8.9410   81.0590 O.co2 214  GLU214     -0.2457
     79  N         13.2970    0.2610   81.8300 N.3   227  VAL227     -0.1245
     80  CA        13.8460    0.0400   80.5220 C.3   227  VAL227      0.1561
     81  C         12.8120   -0.7300   79.7090 C.2   227  VAL227      0.2260
     82  O         12.2840   -1.7300   80.1850 O.2   227  VAL227     -0.2867
     83  CB        15.1920   -0.7290   80.6420 C.3   227  VAL227      0.0252
     84  CG1       15.6870   -1.1960   79.3100 C.3   227  VAL227      0.0019
     85  CG2       16.2610    0.1570   81.2680 C.3   227  VAL227      0.0019
     86  N         16.7930   -2.5590   73.7770 N.3   243  LEU243     -0.1231
     87  CA        16.3130   -1.8840   74.9750 C.3   243  LEU243      0.1693
     88  C         16.6020   -0.4000   74.9420 C.2   243  LEU243      0.2593
     89  O         17.5390    0.0420   74.2990 O.2   243  LEU243     -0.2718
     90  CB        17.0020   -2.4410   76.2300 C.3   243  LEU243      0.0284
     91  CG        16.9950   -3.9520   76.4710 C.3   243  LEU243      0.0019
     92  CD1       18.1630   -4.3530   77.3520 C.3   243  LEU243      0.0001
     93  CD2       15.6860   -4.4200   77.0480 C.3   243  LEU243      0.0001
     94  N         15.8110    0.3580   75.6970 N.am  244  THR244     -0.1939
     95  CA        16.0720    1.7640   75.8940 C.3   244  THR244      0.2028
     96  C         17.5690    1.9520   76.1110 C.2   244  THR244      0.2642
     97  O         18.1490    1.2760   76.9370 O.2   244  THR244     -0.2714
     98  CB        15.3090    2.2540   77.1290 C.3   244  THR244      0.1808
     99  OG1       13.9380    1.8700   77.0290 O.3   244  THR244     -0.2208
    100  CG2       15.2810    3.7610   77.2260 C.3   244  THR244      0.0379
    101  N         18.1900    2.8590   75.3700 N.am  245  LEU245     -0.1963
    102  CA        19.5920    3.2010   75.5800 C.3   245  LEU245      0.1728
    103  C         19.7890    4.1090   76.7780 C.2   245  LEU245      0.2616
    104  O         19.4400    5.2790   76.7250 O.2   245  LEU245     -0.2715
    105  CB        20.1830    3.9280   74.3570 C.3   245  LEU245      0.0311
    106  CG        21.6500    4.3830   74.5030 C.3   245  LEU245      0.0022
    107  CD1       22.5690    3.1660   74.5760 C.3   245  LEU245      0.0001
    108  CD2       22.0980    5.3310   73.3790 C.3   245  LEU245      0.0001
    109  N         20.4370    3.5860   77.8180 N.am  246  MET246     -0.1963
    110  CA        20.7450    4.3410   79.0210 C.3   246  MET246      0.1736
    111  C         22.2350    4.6130   79.1070 C.2   246  MET246      0.2616
    112  O         23.0380    3.7400   79.4640 O.2   246  MET246     -0.2715
    113  CB        20.2880    3.5270   80.2130 C.3   246  MET246      0.0427
    114  CG        18.7930    3.2120   80.1460 C.3   246  MET246      0.0599
    115  SD        17.8010    4.7280   80.0970 S.3   246  MET246     -0.1393
    116  CE        17.5760    5.1850   81.8290 C.3   246  MET246      0.0692
    117  N         22.6160    5.8440   78.8010 N.am  247  ASN247     -0.1972
    118  CA        24.0150    6.1340   78.5220 C.3   247  ASN247      0.1688
    119  C         24.7010    6.9690   79.5840 C.2   247  ASN247      0.2292
    120  O         25.8450    7.3430   79.4210 O.2   247  ASN247     -0.2864
    121  CB        24.1000    6.8640   77.1830 C.3   247  ASN247      0.1181
    122  CG        25.2710    6.4120   76.3440 C.2   247  ASN247      0.2629
    123  OD1       26.1870    5.7280   76.8230 O.2   247  ASN247     -0.2716
    124  ND2       25.2530    6.7930   75.0680 N.am  247  ASN247     -0.0877
    125  N         25.3250    4.0230   85.7830 N.3   250  ASP250     -0.1239
    126  CA        24.3830    3.5910   86.8090 C.3   250  ASP250      0.1674
    127  C         24.6090    4.3820   88.0920 C.2   250  ASP250      0.2266
    128  O         25.4200    5.3040   88.1080 O.2   250  ASP250     -0.2867
    129  CB        24.4020    2.0670   87.0090 C.3   250  ASP250      0.1410
    130  CG        25.7500    1.5410   87.4140 C.2   250  ASP250      0.3668
    131  OD1       26.1660    0.5120   86.8440 O.co2 250  ASP250     -0.2456
    132  OD2       26.4560    2.0810   88.2880 O.co2 250  ASP250     -0.2456
    133  N         23.4120   -0.4330   91.3330 N.3   293  GLU293     -0.1231
    134  CA        24.0140   -0.8870   90.0850 C.3   293  GLU293      0.1699
    135  C         22.9450   -1.1040   89.0070 C.2   293  GLU293      0.2592
    136  O         23.2200   -1.0140   87.8200 O.2   293  GLU293     -0.2718
    137  CB        24.7680   -2.2050   90.2910 C.3   293  GLU293      0.0402
    138  CG        25.1960   -2.5200   91.7170 C.3   293  GLU293      0.1161
    139  CD        26.1050   -3.7350   91.7400 C.2   293  GLU293      0.3649
    140  OE1       26.0440   -4.5150   90.7430 O.co2 293  GLU293     -0.2457
    141  OE2       26.8830   -3.9160   92.7160 O.co2 293  GLU293     -0.2457
    142  N         21.7280   -1.3910   89.4290 N.am  294  ASN294     -0.1974
    143  CA        20.7010   -1.7640   88.4960 C.3   294  ASN294      0.1688
    144  C         19.7750   -0.6040   88.1280 C.2   294  ASN294      0.2292
    145  O         18.7990   -0.7950   87.4160 O.2   294  ASN294     -0.2864
    146  CB        19.9310   -2.9610   89.0350 C.3   294  ASN294      0.1181
    147  CG        20.7190   -4.2420   88.9230 C.2   294  ASN294      0.2629
    148  OD1       21.9210   -4.2250   88.6680 O.2   294  ASN294     -0.2716
    149  ND2       20.0430   -5.3680   89.1020 N.am  294  ASN294     -0.0877
    150  N         19.8970    2.7100   85.9270 N.3   296  LEU296     -0.1245
    151  CA        20.7130    3.3730   84.8970 C.3   296  LEU296      0.1561
    152  C         20.2250    4.7800   84.6570 C.2   296  LEU296      0.2260
    153  O         19.0490    5.0430   84.8220 O.2   296  LEU296     -0.2867
    154  CB        20.6500    2.5690   83.6130 C.3   296  LEU296      0.0270
    155  CG        21.2420    1.1600   83.6980 C.3   296  LEU296      0.0019
    156  CD1       20.7610    0.2480   82.5670 C.3   296  LEU296      0.0001
    157  CD2       22.7510    1.2440   83.6560 C.3   296  LEU296      0.0001
    158  N         16.5950   -1.3830   85.6660 N.3   306  SER306     -0.1202
    159  CA        17.2910   -2.2090   84.6860 C.3   306  SER306      0.2020
    160  C         17.5170   -3.6080   85.2160 C.2   306  SER306      0.2618
    161  O         17.4460   -3.8460   86.4190 O.2   306  SER306     -0.2717
    162  CB        18.6530   -1.6200   84.3890 C.3   306  SER306      0.2103
    163  OG        19.2450   -2.3780   83.3600 O.3   306  SER306     -0.2182
    164  N         17.8320   -4.5260   84.3170 N.am  307  ASP307     -0.1973
    165  CA        18.1120   -5.9120   84.7070 C.3   307  ASP307      0.1709
    166  C         16.9570   -6.5150   85.5030 C.2   307  ASP307      0.2293
    167  O         16.9290   -6.4890   86.7290 O.2   307  ASP307     -0.2864
    168  CB        19.4310   -6.0850   85.4940 C.3   307  ASP307      0.1436
    169  CG        19.7650   -7.5700   85.7310 C.2   307  ASP307      0.3671
    170  OD1       19.0850   -8.4720   85.1630 O.co2 307  ASP307     -0.2456
    171  OD2       20.6790   -7.9400   86.4800 O.co2 307  ASP307     -0.2456
@<TRIPOS>BOND
     1    51    50    2
     2    48    49    1
     3    50    49    1
     4    65    64    2
     5   108   106    1
     6    49    52    1
     7    86    87    1
     8    56    55    2
     9    53    54    1
    10    89    88    2
    11    64    63    1
    12   105   106    1
    13   105   102    1
    14    55    54    1
    15    62    63    1
    16   106   107    1
    17    43    44    2
    18    43    42    1
    19     8     6    1
    20    88    87    1
    21    88    94   am
    22    87    90    1
    23   124   122   am
    24     6     7    1
    25     6     5    1
    26    54    57    1
    27     1     2    1
    28    63    66    1
    29   101   102    1
    30   101    96   am
    31   102   103    1
    32    42    41    1
    33    42    45    1
    34    94    95    1
    35    95    96    1
    36    95    98    1
    37    66    67    1
    38    96    97    2
    39    90    91    1
    40     2     5    1
    41     2     3    1
    42   122   123    2
    43   122   121    1
    44    57    58    1
    45    67    68    1
    46    67    69    1
    47    91    93    1
    48    91    92    1
    49    46    45    1
    50    33    32    2
    51   104   103    2
    52   103   109   am
    53    45    47    1
    54    20    19    1
    55    20    21    1
    56    99    98    1
    57    98   100    1
    58   121   118    1
    59    58    59    1
    60     3     9   am
    61     3     4    2
    62    19    18    1
    63    12    11    2
    64     9    10    1
    65    32    31    1
    66   109   110    1
    67   118   117    1
    68   118   119    1
    69    11    10    1
    70    11    13   am
    71   117   111   am
    72    59    60    1
    73    34    31    1
    74    34    35    1
    75    18    17    1
    76   110   111    1
    77   110   113    1
    78    31    30    1
    79   111   112    2
    80    84    83    1
    81   120   119    2
    82    14    13    1
    83    14    17    1
    84    14    15    1
    85    81    82    2
    86    81    80    1
    87    60    61    1
    88    25    24    2
    89    35    37   ar
    90    35    36   ar
    91   115   114    1
    92   115   116    1
    93    22    15   am
    94    22    23    1
    95   114   113    1
    96    30    28   am
    97    37    39   ar
    98    72    73    2
    99    72    71    1
   100    80    83    1
   101    80    79    1
   102    15    16    2
   103    83    85    1
   104    23    24    1
   105    36    38   ar
   106    24    26   am
   107    78    76   ar
   108    29    28    2
   109    28    27    1
   110    39    40   ar
   111    74    71    1
   112    74    75    1
   113    76    75    1
   114    76    77   ar
   115    71    70    1
   116    38    40   ar
   117    26    27    1
   118   156   155    1
   119   163   162    1
   120   154   155    1
   121   154   151    1
   122   157   155    1
   123   164   165    1
   124   164   160   am
   125   162   159    1
   126   152   153    2
   127   152   151    1
   128   159   160    1
   129   159   158    1
   130   165   168    1
   131   165   166    1
   132   151   150    1
   133   170   169   ar
   134   160   161    2
   135   168   169    1
   136   166   167    2
   137   169   171   ar
   138   125   126    1
   139   126   129    1
   140   126   127    1
   141   131   130   ar
   142   129   130    1
   143   130   132   ar
   144   145   144    2
   145   136   135    2
   146   127   128    2
   147   144   143    1
   148   143   146    1
   149   143   142    1
   150   148   147    2
   151   147   146    1
   152   147   149   am
   153   135   142   am
   154   135   134    1
   155   134   137    1
   156   134   133    1
   157   137   138    1
   158   140   139   ar
   159   138   139    1
   160   139   141   ar
