@<TRIPOS>MOLECULE
tmp/2aczC00.pdb
 126 120 0 0 0
SMALL
GASTEIGER

@<TRIPOS>ATOM
      1  N         79.6900   91.4910  103.3660 N.3    27  SER27      -0.1217
      2  CA        79.5960   92.9460  103.4340 C.3    27  SER27       0.1889
      3  C         80.8310   93.6240  102.8670 C.2    27  SER27       0.2288
      4  O         80.7370   94.4870  101.9970 O.2    27  SER27      -0.2866
      5  CB        79.3560   93.4250  104.8810 C.3    27  SER27       0.2089
      6  OG        80.5200   93.3490  105.6790 O.3    27  SER27      -0.2183
      7  N         80.6300   93.9350   99.2930 N.3    30  HIS30      -0.1226
      8  CA        79.5720   94.8540   98.8920 C.3    30  HIS30       0.1752
      9  C         80.1230   96.2790   98.8530 C.2    30  HIS30       0.2595
     10  O         79.8590   97.0490   97.9230 O.2    30  HIS30      -0.2718
     11  CB        78.4330   94.7990   99.8920 C.3    30  HIS30       0.0759
     12  CG        77.2220   95.5420   99.4470 C.ar   30  HIS30       0.0818
     13  ND1       76.6020   96.4900  100.2290 N.ar   30  HIS30      -0.2268
     14  CD2       76.5310   95.5000   98.2830 C.ar   30  HIS30       0.1154
     15  CE1       75.5840   97.0030   99.5620 C.ar   30  HIS30       0.1986
     16  NE2       75.5200   96.4210   98.3790 N.ar   30  HIS30      -0.2212
     17  N         80.8750   96.6370   99.8910 N.am   31  ARG31      -0.1980
     18  CA        81.4970   97.9500   99.9540 C.3    31  ARG31       0.1597
     19  C         82.4820   98.1170   98.7820 C.2    31  ARG31       0.2287
     20  O         82.3760   99.0570   97.9840 O.2    31  ARG31      -0.2864
     21  CB        82.2280   98.1010  101.2770 C.3    31  ARG31       0.0334
     22  CG        83.0770   99.3380  101.3590 C.3    31  ARG31       0.0492
     23  CD        83.4250   99.6290  102.8010 C.3    31  ARG31       0.2205
     24  NE        82.2880  100.1770  103.5220 N.pl3  31  ARG31      -0.0865
     25  CZ        82.4070  100.9450  104.5920 C.cat  31  ARG31       0.5346
     26  NH1       83.6080  101.2340  105.0580 N.pl3  31  ARG31       0.1354
     27  NH2       81.3350  101.4700  105.1600 N.pl3  31  ARG31       0.1354
     28  N         80.9150   98.6850   95.7100 N.3    34  GLY34      -0.1210
     29  CA        80.3820  100.0380   95.6470 C.3    34  GLY34       0.1956
     30  C         81.3970  101.0160   95.0520 C.2    34  GLY34       0.2611
     31  O         81.1100  101.7260   94.0650 O.2    34  GLY34      -0.2717
     32  N         82.5950  101.0450   95.6380 N.am   35  VAL35      -0.1979
     33  CA        83.6560  101.9210   95.1630 C.3    35  VAL35       0.1595
     34  C         84.0550  101.5970   93.7340 C.2    35  VAL35       0.2287
     35  O         84.4740  102.4780   92.9920 O.2    35  VAL35      -0.2864
     36  CB        84.8880  101.8130   96.0400 C.3    35  VAL35       0.0276
     37  CG1       85.8870  102.8610   95.6390 C.3    35  VAL35       0.0022
     38  CG2       84.4990  101.9720   97.4970 C.3    35  VAL35       0.0022
     39  N         81.9660  100.2900   91.3380 N.3    37  THR37      -0.1203
     40  CA        80.8670  100.7400   90.4950 C.3    37  THR37       0.1994
     41  C         80.9140  102.2570   90.3080 C.2    37  THR37       0.2617
     42  O         80.5860  102.7550   89.2270 O.2    37  THR37      -0.2717
     43  CB        79.4960  100.3110   91.1000 C.3    37  THR37       0.1784
     44  OG1       79.5850   98.9570   91.5650 O.3    37  THR37      -0.2211
     45  CG2       78.3940  100.3720   90.0460 C.3    37  THR37       0.0376
     46  N         81.3150  102.9840   91.3530 N.am   38  PHE38      -0.1975
     47  CA        81.4420  104.4410   91.2630 C.3    38  PHE38       0.1639
     48  C         82.3740  104.8240   90.0850 C.2    38  PHE38       0.2290
     49  O         81.9920  105.6170   89.2120 O.2    38  PHE38      -0.2864
     50  CB        81.9890  105.0030   92.5770 C.3    38  PHE38       0.0560
     51  CG        82.5080  106.4220   92.4740 C.ar   38  PHE38      -0.0200
     52  CD1       81.6390  107.4860   92.2130 C.ar   38  PHE38      -0.0042
     53  CD2       83.8760  106.6930   92.6380 C.ar   38  PHE38      -0.0042
     54  CE1       82.1190  108.7990   92.1190 C.ar   38  PHE38      -0.0003
     55  CE2       84.3680  107.9930   92.5480 C.ar   38  PHE38      -0.0003
     56  CZ        83.4890  109.0540   92.2890 C.ar   38  PHE38      -0.0000
     57  N         80.7610  103.9550   86.4430 N.3    41  VAL41      -0.1245
     58  CA        79.8510  104.8400   85.7230 C.3    41  VAL41       0.1561
     59  C         80.5960  105.7970   84.8190 C.2    41  VAL41       0.2260
     60  O         80.1380  106.0940   83.7100 O.2    41  VAL41      -0.2867
     61  CB        78.9870  105.6770   86.6730 C.3    41  VAL41       0.0252
     62  CG1       78.2020  106.7190   85.8560 C.3    41  VAL41       0.0019
     63  CG2       78.0300  104.7580   87.4730 C.3    41  VAL41       0.0019
     64  N         79.0220   95.3350   89.7000 N.3    81  LEU81      -0.1245
     65  CA        77.6920   95.9240   89.7260 C.3    81  LEU81       0.1561
     66  C         76.7280   94.8440   90.2200 C.2    81  LEU81       0.2260
     67  O         76.1090   94.9940   91.2750 O.2    81  LEU81      -0.2867
     68  CB        77.2760   96.3820   88.3370 C.3    81  LEU81       0.0270
     69  CG        75.8520   96.9450   88.2970 C.3    81  LEU81       0.0019
     70  CD1       75.7730   98.1670   89.2070 C.3    81  LEU81       0.0001
     71  CD2       75.4450   97.2990   86.8830 C.3    81  LEU81       0.0001
     72  N         76.9700   93.8850   93.9530 N.3    84  HIS84      -0.1226
     73  CA        76.4550   95.0050   94.7260 C.3    84  HIS84       0.1752
     74  C         74.9140   95.1480   94.7250 C.2    84  HIS84       0.2595
     75  O         74.3290   95.4900   95.7530 O.2    84  HIS84      -0.2718
     76  CB        77.1230   96.2990   94.2480 C.3    84  HIS84       0.0759
     77  CG        76.8770   97.4580   95.1530 C.ar   84  HIS84       0.0818
     78  ND1       77.2750   97.4670   96.4730 N.ar   84  HIS84      -0.2268
     79  CD2       76.2310   98.6270   94.9460 C.ar   84  HIS84       0.1154
     80  CE1       76.8830   98.5910   97.0430 C.ar   84  HIS84       0.1986
     81  NE2       76.2480   99.3130   96.1380 N.ar   84  HIS84      -0.2212
     82  N         74.2550   94.8900   93.5970 N.am   85  VAL85      -0.1980
     83  CA        72.7970   94.9880   93.5650 C.3    85  VAL85       0.1595
     84  C         72.1810   93.8670   94.4270 C.2    85  VAL85       0.2287
     85  O         71.3930   94.1150   95.3520 O.2    85  VAL85      -0.2864
     86  CB        72.2350   94.8530   92.1130 C.3    85  VAL85       0.0276
     87  CG1       70.7170   95.1610   92.0960 C.3    85  VAL85       0.0022
     88  CG2       73.0020   95.7770   91.1640 C.3    85  VAL85       0.0022
     89  N         72.6630   94.2750   97.9600 N.3    88  GLY88      -0.1210
     90  CA        71.9880   95.4860   98.3960 C.3    88  GLY88       0.1956
     91  C         70.5670   95.0930   98.7410 C.2    88  GLY88       0.2611
     92  O         70.0480   95.4130   99.8190 O.2    88  GLY88      -0.2717
     93  N         69.9460   94.3800   97.8030 N.am   89  ILE89      -0.1979
     94  CA        68.5840   93.8640   97.9660 C.3    89  ILE89       0.1595
     95  C         68.5040   92.9670   99.2110 C.2    89  ILE89       0.2287
     96  O         67.4760   92.9300   99.8890 O.2    89  ILE89      -0.2864
     97  CB        68.1610   93.0420   96.7470 C.3    89  ILE89       0.0276
     98  CG1       68.4400   93.8490   95.4740 C.3    89  ILE89       0.0022
     99  CG2       66.6880   92.6740   96.8650 C.3    89  ILE89       0.0022
    100  CD1       68.2500   93.0940   94.1850 C.3    89  ILE89       0.0001
    101  N         70.3910   93.3400  101.9270 N.3    91  HIS91      -0.1226
    102  CA        70.4220   94.3770  102.9630 C.3    91  HIS91       0.1752
    103  C         69.0150   94.8100  103.2650 C.2    91  HIS91       0.2595
    104  O         68.5030   94.6050  104.3580 O.2    91  HIS91      -0.2718
    105  CB        71.1660   95.6100  102.4540 C.3    91  HIS91       0.0759
    106  CG        72.5170   95.7960  103.0560 C.ar   91  HIS91       0.0818
    107  ND1       72.7140   95.9040  104.4150 N.ar   91  HIS91      -0.2268
    108  CD2       73.7440   95.8590  102.4890 C.ar   91  HIS91       0.1154
    109  CE1       74.0070   96.0180  104.6600 C.ar   91  HIS91       0.1986
    110  NE2       74.6540   95.9920  103.5090 N.ar   91  HIS91      -0.2212
    111  N         68.4090   95.4200  102.2510 N.am   92  MET92      -0.1979
    112  CA        67.0580   95.9400  102.3170 C.3    92  MET92       0.1605
    113  C         66.0270   94.9430  102.8040 C.2    92  MET92       0.2287
    114  O         65.0820   95.3240  103.4930 O.2    92  MET92      -0.2864
    115  CB        66.6730   96.4770  100.9520 C.3    92  MET92       0.0413
    116  CG        67.6710   97.4800  100.4190 C.3    92  MET92       0.0598
    117  SD        66.9670   98.3780   99.0480 S.3    92  MET92      -0.1393
    118  CE        65.9150   99.4620   99.9090 C.3    92  MET92       0.0692
    119  N         66.4310   94.9460  106.2460 N.3    95  ASP95      -0.1239
    120  CA        66.0690   96.2710  106.7460 C.3    95  ASP95       0.1674
    121  C         64.5680   96.2880  106.9710 C.2    95  ASP95       0.2266
    122  O         64.1130   96.6480  108.0590 O.2    95  ASP95      -0.2867
    123  CB        66.4770   97.3960  105.7720 C.3    95  ASP95       0.1410
    124  CG        67.9260   97.8630  105.9710 C.2    95  ASP95       0.3668
    125  OD1       68.4230   97.8970  107.1270 O.co2  95  ASP95      -0.2456
    126  OD2       68.5680   98.2150  104.9630 O.co2  95  ASP95      -0.2456
@<TRIPOS>BOND
     1    60    59    2
     2    59    58    1
     3    58    57    1
     4    58    61    1
     5    62    61    1
     6    61    63    1
     7    71    69    1
     8    69    68    1
     9    69    70    1
    10    68    65    1
    11    49    48    2
    12    42    41    2
    13    64    65    1
    14    65    66    1
    15    45    43    1
    16    48    47    1
    17    66    67    2
    18    41    40    1
    19    41    46   am
    20    40    43    1
    21    40    39    1
    22    43    44    1
    23    88    86    1
    24    47    46    1
    25    47    50    1
    26    87    86    1
    27    86    83    1
    28    54    52   ar
    29    54    56   ar
    30    52    51   ar
    31    56    55   ar
    32    51    50    1
    33    51    53   ar
    34    55    53   ar
    35    35    34    2
    36    83    82    1
    37    83    84    1
    38    82    74   am
    39    34    33    1
    40    72    73    1
    41    31    30    2
    42   100    98    1
    43    76    73    1
    44    76    77    1
    45    84    85    2
    46    74    73    1
    47    74    75    2
    48    79    77   ar
    49    79    81   ar
    50    30    32   am
    51    30    29    1
    52    77    78   ar
    53    33    32    1
    54    33    36    1
    55    98    97    1
    56    37    36    1
    57    29    28    1
    58    36    38    1
    59    81    80   ar
    60    78    80   ar
    61    97    99    1
    62    97    94    1
    63    93    94    1
    64    93    91   am
    65    10     9    2
    66    89    90    1
    67    94    95    1
    68    20    19    2
    69    14    16   ar
    70    14    12   ar
    71    16    15   ar
    72    90    91    1
    73    91    92    2
    74    19    18    1
    75     9     8    1
    76     9    17   am
    77     8     7    1
    78     8    11    1
    79   117   118    1
    80   117   116    1
    81    95    96    2
    82    12    11    1
    83    12    13   ar
    84    15    13   ar
    85    17    18    1
    86    18    21    1
    87   116   115    1
    88   115   112    1
    89    21    22    1
    90    22    23    1
    91   101   102    1
    92     4     3    2
    93   111   112    1
    94   111   103   am
    95   112   113    1
    96   105   102    1
    97   105   106    1
    98   108   106   ar
    99   108   110   ar
   100    23    24    1
   101   113   114    2
   102     3     2    1
   103   102   103    1
   104   106   107   ar
   105   103   104    2
   106     1     2    1
   107     2     5    1
   108   110   109   ar
   109    24    25    2
   110   107   109   ar
   111    25    26    1
   112    25    27    1
   113     5     6    1
   114   126   124   ar
   115   123   124    1
   116   123   120    1
   117   124   125   ar
   118   119   120    1
   119   120   121    1
   120   121   122    2
