@<TRIPOS>MOLECULE
tmp/2aczD01.pdb
 148 143 0 0 0
SMALL
GASTEIGER

@<TRIPOS>ATOM
      1  N         67.3740  102.9700   91.1580 N.3    24  LEU24      -0.1231
      2  CA        68.5330  102.4890   90.4200 C.3    24  LEU24       0.1693
      3  C         68.4750  101.0370   89.9960 C.2    24  LEU24       0.2592
      4  O         69.1720  100.6370   89.0510 O.2    24  LEU24      -0.2718
      5  CB        69.8090  102.7740   91.2000 C.3    24  LEU24       0.0284
      6  CG        70.2560  104.2230   90.9900 C.3    24  LEU24       0.0019
      7  CD1       71.3560  104.5630   91.9390 C.3    24  LEU24       0.0001
      8  CD2       70.7170  104.4050   89.5470 C.3    24  LEU24       0.0001
      9  N         67.6250  100.2690   90.6850 N.am   25  THR25      -0.1953
     10  CA        67.3810   98.8420   90.4020 C.3    25  THR25       0.1897
     11  C         66.5010   98.7160   89.1610 C.2    25  THR25       0.2313
     12  O         66.8620   98.0430   88.1960 O.2    25  THR25      -0.2863
     13  CB        66.6470   98.1770   91.5490 C.3    25  THR25       0.1794
     14  OG1       67.5510   97.9500   92.6370 O.3    25  THR25      -0.2208
     15  CG2       66.0610   96.8920   91.0920 C.3    25  THR25       0.0378
     16  N         65.8870  100.8980   86.8550 N.3    27  TYR27      -0.1227
     17  CA        66.6680  101.3590   85.7040 C.3    27  TYR27       0.1736
     18  C         67.6250  100.2960   85.1080 C.2    27  TYR27       0.2595
     19  O         67.7470  100.1690   83.8760 O.2    27  TYR27      -0.2718
     20  CB        67.5070  102.5760   86.0770 C.3    27  TYR27       0.0548
     21  CG        68.2660  103.0930   84.8880 C.ar   27  TYR27      -0.0200
     22  CD1       67.5840  103.6620   83.8240 C.ar   27  TYR27      -0.0009
     23  CD2       69.6530  102.9880   84.8130 C.ar   27  TYR27      -0.0009
     24  CE1       68.2560  104.1270   82.6990 C.ar   27  TYR27       0.0417
     25  CE2       70.3490  103.4460   83.6960 C.ar   27  TYR27       0.0417
     26  CZ        69.6400  104.0190   82.6340 C.ar   27  TYR27       0.1957
     27  OH        70.2730  104.4900   81.5020 O.3    27  TYR27      -0.2866
     28  N         68.3300   99.5730   85.9880 N.am   28  ILE28      -0.1966
     29  CA        69.2580   98.5330   85.5470 C.3    28  ILE28       0.1727
     30  C         68.4570   97.4190   84.8730 C.2    28  ILE28       0.2616
     31  O         68.7740   97.0360   83.7480 O.2    28  ILE28      -0.2715
     32  CB        70.0910   97.9540   86.7350 C.3    28  ILE28       0.0290
     33  CG1       71.0170   99.0420   87.3120 C.3    28  ILE28       0.0022
     34  CG2       70.9140   96.7510   86.2660 C.3    28  ILE28       0.0023
     35  CD1       71.9080   98.5680   88.4380 C.3    28  ILE28       0.0001
     36  N         67.4270   96.9030   85.5490 N.am   29  ILE29      -0.1977
     37  CA        66.5860   95.8700   84.9500 C.3    29  ILE29       0.1596
     38  C         66.2290   96.3510   83.5350 C.2    29  ILE29       0.2287
     39  O         66.5910   95.7200   82.5450 O.2    29  ILE29      -0.2864
     40  CB        65.2550   95.6690   85.7300 C.3    29  ILE29       0.0276
     41  CG1       65.5110   95.0990   87.1290 C.3    29  ILE29       0.0022
     42  CG2       64.3470   94.7470   84.9580 C.3    29  ILE29       0.0022
     43  CD1       64.2520   94.8880   87.9390 C.3    29  ILE29       0.0001
     44  N         67.4390   98.4710   81.6190 N.3    31  MET31      -0.1230
     45  CA        68.5930   98.5350   80.7270 C.3    31  MET31       0.1702
     46  C         69.1130   97.1410   80.3520 C.2    31  MET31       0.2592
     47  O         69.6640   96.9440   79.2580 O.2    31  MET31      -0.2718
     48  CB        69.7080   99.3500   81.3740 C.3    31  MET31       0.0401
     49  CG        69.4660  100.8100   81.2910 C.3    31  MET31       0.0596
     50  SD        69.3300  101.2230   79.5780 S.3    31  MET31      -0.1393
     51  CE        71.0490  101.5060   79.1590 C.3    31  MET31       0.0692
     52  N         68.9500   96.1830   81.2600 N.am   32  VAL32      -0.1980
     53  CA        69.3760   94.8170   80.9930 C.3    32  VAL32       0.1595
     54  C         68.3850   94.1930   80.0140 C.2    32  VAL32       0.2287
     55  O         68.7930   93.5900   79.0200 O.2    32  VAL32      -0.2864
     56  CB        69.4480   93.9810   82.2900 C.3    32  VAL32       0.0276
     57  CG1       69.4410   92.5100   81.9610 C.3    32  VAL32       0.0022
     58  CG2       70.7150   94.3340   83.0590 C.3    32  VAL32       0.0022
     59  N         69.2030   95.2660   76.2550 N.3    35  PHE35      -0.1227
     60  CA        70.4000   94.5890   75.7680 C.3    35  PHE35       0.1736
     61  C         70.2730   93.0860   75.5540 C.2    35  PHE35       0.2595
     62  O         70.8740   92.5290   74.6250 O.2    35  PHE35      -0.2718
     63  CB        71.5550   94.8350   76.7250 C.3    35  PHE35       0.0547
     64  CG        72.3490   96.0650   76.4140 C.ar   35  PHE35      -0.0202
     65  CD1       72.2240   97.2090   77.1980 C.ar   35  PHE35      -0.0042
     66  CD2       73.2460   96.0700   75.3530 C.ar   35  PHE35      -0.0042
     67  CE1       72.9860   98.3410   76.9310 C.ar   35  PHE35      -0.0003
     68  CE2       74.0080   97.1870   75.0770 C.ar   35  PHE35      -0.0003
     69  CZ        73.8810   98.3280   75.8680 C.ar   35  PHE35      -0.0000
     70  N         69.5040   92.4370   76.4280 N.am   36  ALA36      -0.1980
     71  CA        69.2810   90.9940   76.3600 C.3    36  ALA36       0.1597
     72  C         68.3400   90.6320   75.2210 C.2    36  ALA36       0.2287
     73  O         68.0780   89.4690   74.9710 O.2    36  ALA36      -0.2864
     74  CB        68.7060   90.5020   77.6750 C.3    36  ALA36       0.0319
     75  N         71.4740   91.5690   71.0260 N.3    39  GLY39      -0.1210
     76  CA        72.5880   90.8120   70.4690 C.3    39  GLY39       0.1956
     77  C         73.4260   91.6550   69.5090 C.2    39  GLY39       0.2612
     78  O         74.4620   92.2330   69.8920 O.2    39  GLY39      -0.2717
     79  N         72.9890   91.7080   68.2510 N.am   40  GLU40      -0.1965
     80  CA        73.6640   92.5040   67.2390 C.3    40  GLU40       0.1733
     81  C         73.0460   93.8890   67.3350 C.2    40  GLU40       0.2616
     82  O         71.8580   94.0900   67.0560 O.2    40  GLU40      -0.2715
     83  CB        73.4530   91.8960   65.8510 C.3    40  GLU40       0.0429
     84  CG        74.3940   90.7320   65.5560 C.3    40  GLU40       0.1163
     85  CD        73.8340   89.7570   64.5280 C.2    40  GLU40       0.3649
     86  OE1       73.3040   90.2160   63.4910 O.co2  40  GLU40      -0.2457
     87  OE2       73.9310   88.5290   64.7550 O.co2  40  GLU40      -0.2457
     88  N         73.8610   94.8400   67.7700 N.am   41  LEU41      -0.1977
     89  CA        73.3980   96.2040   67.9330 C.3    41  LEU41       0.1596
     90  C         73.7470   97.0620   66.7210 C.2    41  LEU41       0.2287
     91  O         74.9170   97.3660   66.4670 O.2    41  LEU41      -0.2864
     92  CB        73.9970   96.8120   69.2150 C.3    41  LEU41       0.0297
     93  CG        73.3470   98.0640   69.8370 C.3    41  LEU41       0.0022
     94  CD1       71.8730   97.7800   70.1780 C.3    41  LEU41       0.0001
     95  CD2       74.1220   98.4780   71.1030 C.3    41  LEU41       0.0001
     96  N         70.3520  101.2360   68.1830 N.3    46  TRP46      -0.1241
     97  CA        70.9590  101.9320   69.3120 C.3    46  TRP46       0.1605
     98  C         70.4530  103.3620   69.4440 C.2    46  TRP46       0.2264
     99  O         69.7920  103.7120   70.4260 O.2    46  TRP46      -0.2867
    100  CB        72.4900  101.9350   69.1620 C.3    46  TRP46       0.0550
    101  CG        73.2230  102.3330   70.4030 C.ar   46  TRP46       0.0003
    102  CD1       74.2740  103.2100   70.4970 C.ar   46  TRP46       0.0946
    103  CD2       72.9790  101.8580   71.7270 C.ar   46  TRP46       0.0152
    104  NE1       74.7000  103.3090   71.8040 N.ar   46  TRP46      -0.2442
    105  CE2       73.9220  102.4910   72.5810 C.ar   46  TRP46       0.0810
    106  CE3       72.0510  100.9630   72.2820 C.ar   46  TRP46       0.0012
    107  CZ2       73.9620  102.2560   73.9580 C.ar   46  TRP46       0.0191
    108  CZ3       72.0860  100.7290   73.6550 C.ar   46  TRP46       0.0001
    109  CH2       73.0390  101.3760   74.4780 C.ar   46  TRP46       0.0015
    110  N         67.7550  105.4070   72.4450 N.3    50  PHE50      -0.1241
    111  CA        68.0880  106.5770   73.2400 C.3    50  PHE50       0.1605
    112  C         67.3460  107.7800   72.7250 C.2    50  PHE50       0.2264
    113  O         67.3320  108.8230   73.3590 O.2    50  PHE50      -0.2867
    114  CB        69.5880  106.8420   73.2220 C.3    50  PHE50       0.0534
    115  CG        70.3430  106.0260   74.2180 C.ar   50  PHE50      -0.0203
    116  CD1       70.5190  104.6570   74.0240 C.ar   50  PHE50      -0.0042
    117  CD2       70.8150  106.6110   75.3960 C.ar   50  PHE50      -0.0042
    118  CE1       71.1480  103.8750   74.9910 C.ar   50  PHE50      -0.0003
    119  CE2       71.4480  105.8460   76.3760 C.ar   50  PHE50      -0.0003
    120  CZ        71.6150  104.4680   76.1730 C.ar   50  PHE50      -0.0000
    121  N         67.4940  107.3900   82.1370 N.3    59  THR59      -0.1218
    122  CA        68.9330  107.5150   82.1860 C.3    59  THR59       0.1862
    123  C         69.3020  108.6560   83.1170 C.2    59  THR59       0.2287
    124  O         70.0750  108.4600   84.0570 O.2    59  THR59      -0.2866
    125  CB        69.4930  107.7980   80.8040 C.3    59  THR59       0.1770
    126  OG1       69.1500  106.7120   79.9400 O.3    59  THR59      -0.2211
    127  CG2       71.0040  107.9530   80.8610 C.3    59  THR59       0.0375
    128  N         68.4640  108.3570   86.7010 N.3    62  ALA62      -0.1231
    129  CA        69.4500  107.4170   87.2810 C.3    62  ALA62       0.1694
    130  C         70.7060  108.1730   87.7200 C.2    62  ALA62       0.2591
    131  O         71.1130  108.0820   88.8760 O.2    62  ALA62      -0.2718
    132  CB        69.8270  106.3630   86.2680 C.3    62  ALA62       0.0304
    133  N         71.3040  108.9170   86.7860 N.am   63  LEU63      -0.1980
    134  CA        72.4950  109.7230   87.0770 C.3    63  LEU63       0.1596
    135  C         72.2570  110.5940   88.3130 C.2    63  LEU63       0.2287
    136  O         73.0990  110.6930   89.2120 O.2    63  LEU63      -0.2864
    137  CB        72.8360  110.6150   85.8860 C.3    63  LEU63       0.0297
    138  CG        73.2230  109.8200   84.6460 C.3    63  LEU63       0.0022
    139  CD1       73.0070  110.6250   83.3870 C.3    63  LEU63       0.0001
    140  CD2       74.6580  109.3990   84.7830 C.3    63  LEU63       0.0001
    141  N         72.3050  108.3800   91.2060 N.3    66  ILE66      -0.1245
    142  CA        73.6170  107.9070   91.5770 C.3    66  ILE66       0.1561
    143  C         74.2950  108.9950   92.4300 C.2    66  ILE66       0.2260
    144  O         74.8470  108.6920   93.5050 O.2    66  ILE66      -0.2867
    145  CB        74.4370  107.5600   90.3320 C.3    66  ILE66       0.0252
    146  CG1       73.6930  106.5060   89.5190 C.3    66  ILE66       0.0019
    147  CG2       75.8050  107.0190   90.7420 C.3    66  ILE66       0.0019
    148  CD1       74.3990  106.1260   88.2770 C.3    66  ILE66       0.0001
@<TRIPOS>BOND
     1    86    85   ar
     2    85    87   ar
     3    85    84    1
     4    84    83    1
     5    83    80    1
     6    91    90    2
     7    90    89    1
     8    82    81    2
     9    80    81    1
    10    80    79    1
    11    81    88   am
    12    88    89    1
    13    89    92    1
    14    96    97    1
    15    79    77   am
    16   100    97    1
    17   100   101    1
    18    92    93    1
    19    97    98    1
    20    98    99    2
    21    77    78    2
    22    77    76    1
    23    93    94    1
    24    93    95    1
    25   101   102   ar
    26   101   103   ar
    27    76    75    1
    28   102   104   ar
    29   103   106   ar
    30   103   105   ar
    31   104   105   ar
    32   106   108   ar
    33   110   111    1
    34   105   107   ar
    35   112   111    1
    36   112   113    2
    37   114   111    1
    38   114   115    1
    39   108   109   ar
    40   107   109   ar
    41   116   115   ar
    42   116   118   ar
    43   115   117   ar
    44    62    61    2
    45    73    72    2
    46   118   120   ar
    47    68    66   ar
    48    68    69   ar
    49    72    71    1
    50    66    64   ar
    51   117   119   ar
    52    61    60    1
    53    61    70   am
    54    60    59    1
    55    60    63    1
    56    69    67   ar
    57   120   119   ar
    58    71    70    1
    59    71    74    1
    60    64    63    1
    61    64    65   ar
    62    67    65   ar
    63    55    54    2
    64    51    50    1
    65    47    46    2
    66    50    49    1
    67   126   125    1
    68    54    53    1
    69    46    45    1
    70    46    52   am
    71    45    48    1
    72    45    44    1
    73   125   127    1
    74   125   122    1
    75    53    52    1
    76    53    56    1
    77    49    48    1
    78    27    26    1
    79    57    56    1
    80   121   122    1
    81   122   123    1
    82    56    58    1
    83    39    38    2
    84    26    24   ar
    85    26    25   ar
    86    24    22   ar
    87   123   124    2
    88   139   138    1
    89    38    37    1
    90    25    23   ar
    91    31    30    2
    92    22    21   ar
    93    19    18    2
    94   138   140    1
    95   138   137    1
    96    23    21   ar
    97    30    29    1
    98    30    36   am
    99    21    20    1
   100    37    36    1
   101    37    40    1
   102    42    40    1
   103    18    17    1
   104    18    28   am
   105    29    28    1
   106    29    32    1
   107    17    20    1
   108    17    16    1
   109    40    41    1
   110   137   134    1
   111    34    32    1
   112   132   129    1
   113   128   129    1
   114    32    33    1
   115   133   134    1
   116   133   130   am
   117   134   135    1
   118    41    43    1
   119   129   130    1
   120    33    35    1
   121   130   131    2
   122    12    11    2
   123   148   146    1
   124   135   136    2
   125     4     3    2
   126    11    10    1
   127   146   145    1
   128     8     6    1
   129     3     2    1
   130     3     9   am
   131   145   147    1
   132   145   142    1
   133    10     9    1
   134    10    13    1
   135     2     1    1
   136     2     5    1
   137     6     5    1
   138     6     7    1
   139    15    13    1
   140   141   142    1
   141    13    14    1
   142   142   143    1
   143   143   144    2
