@<TRIPOS>MOLECULE
tmp/2aczC02.pdb
 199 185 0 0 0
SMALL
GASTEIGER

@<TRIPOS>ATOM
      1  N         81.9660  100.2900   91.3380 N.3    37  THR37      -0.1218
      2  CA        80.8670  100.7400   90.4950 C.3    37  THR37       0.1862
      3  C         80.9140  102.2570   90.3080 C.2    37  THR37       0.2287
      4  O         80.5860  102.7550   89.2270 O.2    37  THR37      -0.2866
      5  CB        79.4960  100.3110   91.1000 C.3    37  THR37       0.1770
      6  OG1       79.5850   98.9570   91.5650 O.3    37  THR37      -0.2211
      7  CG2       78.3940  100.3720   90.0460 C.3    37  THR37       0.0375
      8  N         80.7610  103.9550   86.4430 N.3    41  VAL41      -0.1245
      9  CA        79.8510  104.8400   85.7230 C.3    41  VAL41       0.1561
     10  C         80.5960  105.7970   84.8190 C.2    41  VAL41       0.2260
     11  O         80.1380  106.0940   83.7100 O.2    41  VAL41      -0.2867
     12  CB        78.9870  105.6770   86.6730 C.3    41  VAL41       0.0252
     13  CG1       78.2020  106.7190   85.8560 C.3    41  VAL41       0.0019
     14  CG2       78.0300  104.7580   87.4730 C.3    41  VAL41       0.0019
     15  N         81.5310  103.9350   81.7720 N.3    44  LEU44      -0.1231
     16  CA        80.3380  103.7000   80.9700 C.3    44  LEU44       0.1693
     17  C         79.7990  104.9710   80.3120 C.2    44  LEU44       0.2591
     18  O         79.3990  104.9380   79.1460 O.2    44  LEU44      -0.2718
     19  CB        79.2650  103.0160   81.8040 C.3    44  LEU44       0.0284
     20  CG        79.6970  101.5880   82.1530 C.3    44  LEU44       0.0019
     21  CD1       78.6110  100.9070   82.9490 C.3    44  LEU44       0.0001
     22  CD2       79.9730  100.8040   80.8790 C.3    44  LEU44       0.0001
     23  N         79.8050  106.1000   81.0250 N.am   45  LEU45      -0.1980
     24  CA        79.3310  107.3350   80.4060 C.3    45  LEU45       0.1596
     25  C         80.2610  107.6980   79.2630 C.2    45  LEU45       0.2287
     26  O         79.8130  108.2120   78.2400 O.2    45  LEU45      -0.2864
     27  CB        79.2620  108.4880   81.4050 C.3    45  LEU45       0.0297
     28  CG        77.9920  108.4600   82.2630 C.3    45  LEU45       0.0022
     29  CD1       78.0070  109.6060   83.2560 C.3    45  LEU45       0.0001
     30  CD2       76.7660  108.5460   81.3790 C.3    45  LEU45       0.0001
     31  N         81.9060  105.6420   77.3120 N.3    47  LEU47      -0.1231
     32  CA        81.5370  104.7480   76.2210 C.3    47  LEU47       0.1693
     33  C         80.1870  105.1060   75.6320 C.2    47  LEU47       0.2591
     34  O         80.0300  105.1220   74.4090 O.2    47  LEU47      -0.2718
     35  CB        81.5210  103.3030   76.6980 C.3    47  LEU47       0.0284
     36  CG        82.8600  102.6030   76.5000 C.3    47  LEU47       0.0019
     37  CD1       83.0510  101.5350   77.5770 C.3    47  LEU47       0.0001
     38  CD2       82.9170  102.0260   75.0920 C.3    47  LEU47       0.0001
     39  N         79.2120  105.3890   76.4900 N.am   48  LEU48      -0.1980
     40  CA        77.8930  105.7720   76.0040 C.3    48  LEU48       0.1596
     41  C         78.0100  107.0710   75.2020 C.2    48  LEU48       0.2287
     42  O         77.2560  107.2950   74.2490 O.2    48  LEU48      -0.2864
     43  CB        76.9350  105.9760   77.1730 C.3    48  LEU48       0.0297
     44  CG        75.5360  106.4630   76.8120 C.3    48  LEU48       0.0022
     45  CD1       74.8680  105.5160   75.8610 C.3    48  LEU48       0.0001
     46  CD2       74.7350  106.5580   78.0580 C.3    48  LEU48       0.0001
     47  N         79.4810  106.1910   71.8140 N.3    51  SER51      -0.1217
     48  CA        78.3810  105.4480   71.1990 C.3    51  SER51       0.1889
     49  C         77.3480  106.2290   70.4040 C.2    51  SER51       0.2288
     50  O         77.0720  105.9070   69.2460 O.2    51  SER51      -0.2866
     51  CB        77.6280  104.6600   72.2650 C.3    51  SER51       0.2089
     52  OG        78.4250  103.6120   72.7810 O.3    51  SER51      -0.2183
     53  N         80.0910  105.3930   66.8520 N.3    58  PHE58      -0.1241
     54  CA        79.5430  104.0750   67.1710 C.3    58  PHE58       0.1605
     55  C         80.5420  102.9970   66.8160 C.2    58  PHE58       0.2264
     56  O         80.7640  102.0670   67.5900 O.2    58  PHE58      -0.2867
     57  CB        78.2540  103.8140   66.4040 C.3    58  PHE58       0.0534
     58  CG        77.5320  102.5950   66.8620 C.ar   58  PHE58      -0.0203
     59  CD1       76.5630  102.6790   67.8510 C.ar   58  PHE58      -0.0042
     60  CD2       77.8310  101.3550   66.3200 C.ar   58  PHE58      -0.0042
     61  CE1       75.8930  101.5360   68.2970 C.ar   58  PHE58      -0.0003
     62  CE2       77.1710  100.2080   66.7570 C.ar   58  PHE58      -0.0003
     63  CZ        76.1980  100.2990   67.7480 C.ar   58  PHE58      -0.0000
     64  N         83.3790  102.7180   69.1050 N.3    61  ALA61      -0.1231
     65  CA        82.9440  102.1310   70.3750 C.3    61  ALA61       0.1694
     66  C         82.9620  100.6170   70.2860 C.2    61  ALA61       0.2592
     67  O         83.4910   99.9370   71.1710 O.2    61  ALA61      -0.2718
     68  CB        81.5350  102.6120   70.7290 C.3    61  ALA61       0.0304
     69  N         82.3730  100.1030   69.2070 N.am   62  SER62      -0.1952
     70  CA        82.3000   98.6690   68.9520 C.3    62  SER62       0.1924
     71  C         83.7110   98.1100   68.9510 C.2    62  SER62       0.2314
     72  O         84.0010   97.1180   69.6210 O.2    62  SER62      -0.2863
     73  CB        81.6550   98.4190   67.5920 C.3    62  SER62       0.2116
     74  OG        80.5510   99.2860   67.3860 O.3    62  SER62      -0.2180
     75  N         85.2780   97.6050   72.3790 N.3    65  MET65      -0.1245
     76  CA        84.7110   96.4710   73.0940 C.3    65  MET65       0.1570
     77  C         85.2330   95.1860   72.4420 C.2    65  MET65       0.2261
     78  O         85.0360   94.0840   72.9610 O.2    65  MET65      -0.2867
     79  CB        83.1780   96.5100   73.0350 C.3    65  MET65       0.0387
     80  CG        82.4920   95.8710   74.2450 C.3    65  MET65       0.0595
     81  SD        82.8460   96.8030   75.7700 S.3    65  MET65      -0.1393
     82  CE        82.2460   98.4530   75.2600 C.3    65  MET65       0.0692
     83  N         87.0160   93.6070   77.0880 N.3    71  LYS71      -0.1245
     84  CA        85.9800   92.6560   77.4760 C.3    71  LYS71       0.1561
     85  C         86.1580   92.1920   78.9250 C.2    71  LYS71       0.2260
     86  O         85.2020   92.1980   79.7040 O.2    71  LYS71      -0.2867
     87  CB        85.9880   91.4360   76.5500 C.3    71  LYS71       0.0271
     88  CG        85.5040   91.7460   75.1520 C.3    71  LYS71       0.0035
     89  CD        85.3710   90.4990   74.2970 C.3    71  LYS71       0.0206
     90  CE        84.8530   90.8470   72.9110 C.3    71  LYS71       0.1093
     91  NZ        83.4940   91.4490   72.9810 N.3    71  LYS71      -0.1314
     92  N         85.1150   95.1940   81.0750 N.3    74  MET74      -0.1245
     93  CA        83.6810   95.3720   80.9070 C.3    74  MET74       0.1570
     94  C         82.8860   94.2700   81.6190 C.2    74  MET74       0.2261
     95  O         81.7010   94.4400   81.9190 O.2    74  MET74      -0.2867
     96  CB        83.3580   95.3650   79.4150 C.3    74  MET74       0.0387
     97  CG        81.9150   95.6160   79.0680 C.3    74  MET74       0.0595
     98  SD        81.4100   97.2720   79.4960 S.3    74  MET74      -0.1393
     99  CE        80.1440   96.8830   80.7070 C.3    74  MET74       0.0692
    100  N         80.4200   94.7970   85.1960 N.3    78  LEU78      -0.1245
    101  CA        79.0800   94.2170   85.2650 C.3    78  LEU78       0.1561
    102  C         78.9260   93.2390   86.4240 C.2    78  LEU78       0.2260
    103  O         77.8470   93.1150   87.0140 O.2    78  LEU78      -0.2867
    104  CB        78.7260   93.5590   83.9270 C.3    78  LEU78       0.0270
    105  CG        78.3430   94.6220   82.8820 C.3    78  LEU78       0.0019
    106  CD1       78.3850   94.0660   81.4790 C.3    78  LEU78       0.0001
    107  CD2       76.9600   95.1520   83.2060 C.3    78  LEU78       0.0001
    108  N         79.0220   95.3350   89.7000 N.3    81  LEU81      -0.1231
    109  CA        77.6920   95.9240   89.7260 C.3    81  LEU81       0.1693
    110  C         76.7280   94.8440   90.2200 C.2    81  LEU81       0.2591
    111  O         76.1090   94.9940   91.2750 O.2    81  LEU81      -0.2718
    112  CB        77.2760   96.3820   88.3370 C.3    81  LEU81       0.0284
    113  CG        75.8520   96.9450   88.2970 C.3    81  LEU81       0.0019
    114  CD1       75.7730   98.1670   89.2070 C.3    81  LEU81       0.0001
    115  CD2       75.4450   97.2990   86.8830 C.3    81  LEU81       0.0001
    116  N         76.6250   93.7470   89.4640 N.am   82  ALA82      -0.1980
    117  CA        75.7620   92.6130   89.8250 C.3    82  ALA82       0.1597
    118  C         75.8230   92.2810   91.3260 C.2    82  ALA82       0.2287
    119  O         74.8000   92.3250   92.0230 O.2    82  ALA82      -0.2864
    120  CB        76.1520   91.3820   89.0130 C.3    82  ALA82       0.0319
    121  N         74.2550   94.8900   93.5970 N.3    85  VAL85      -0.1231
    122  CA        72.7970   94.9880   93.5650 C.3    85  VAL85       0.1692
    123  C         72.1810   93.8670   94.4270 C.2    85  VAL85       0.2591
    124  O         71.3930   94.1150   95.3520 O.2    85  VAL85      -0.2718
    125  CB        72.2350   94.8530   92.1130 C.3    85  VAL85       0.0266
    126  CG1       70.7170   95.1610   92.0960 C.3    85  VAL85       0.0020
    127  CG2       73.0020   95.7770   91.1640 C.3    85  VAL85       0.0020
    128  N         72.5530   92.6250   94.1300 N.am   86  VAL86      -0.1980
    129  CA        71.9960   91.5110   94.8690 C.3    86  VAL86       0.1595
    130  C         72.1510   91.7230   96.3640 C.2    86  VAL86       0.2287
    131  O         71.1530   91.8030   97.0910 O.2    86  VAL86      -0.2864
    132  CB        72.6470   90.1770   94.4700 C.3    86  VAL86       0.0276
    133  CG1       71.8430   89.0100   95.0700 C.3    86  VAL86       0.0022
    134  CG2       72.6980   90.0620   92.9600 C.3    86  VAL86       0.0022
    135  N         69.9460   94.3800   97.8030 N.3    89  ILE89      -0.1245
    136  CA        68.5840   93.8640   97.9660 C.3    89  ILE89       0.1561
    137  C         68.5040   92.9670   99.2110 C.2    89  ILE89       0.2260
    138  O         67.4760   92.9300   99.8890 O.2    89  ILE89      -0.2867
    139  CB        68.1610   93.0420   96.7470 C.3    89  ILE89       0.0252
    140  CG1       68.4400   93.8490   95.4740 C.3    89  ILE89       0.0019
    141  CG2       66.6880   92.6740   96.8650 C.3    89  ILE89       0.0019
    142  CD1       68.2500   93.0940   94.1850 C.3    89  ILE89       0.0001
    143  N         74.5850   85.5540   87.4970 N.3   120  LEU120     -0.1245
    144  CA        74.4990   86.8430   86.8080 C.3   120  LEU120      0.1561
    145  C         75.8430   87.2590   86.2070 C.2   120  LEU120      0.2260
    146  O         75.8980   87.8570   85.1180 O.2   120  LEU120     -0.2867
    147  CB        73.9770   87.9180   87.7610 C.3   120  LEU120      0.0270
    148  CG        72.4490   87.9220   87.9270 C.3   120  LEU120      0.0019
    149  CD1       72.0630   88.5990   89.2410 C.3   120  LEU120      0.0001
    150  CD2       71.8110   88.6160   86.7100 C.3   120  LEU120      0.0001
    151  N         76.0270   85.3500   82.8740 N.3   123  LEU123     -0.1231
    152  CA        75.3330   86.0180   81.7740 C.3   123  LEU123      0.1693
    153  C         76.1010   87.2600   81.3520 C.2   123  LEU123      0.2591
    154  O         76.3020   87.4820   80.1610 O.2   123  LEU123     -0.2718
    155  CB        73.9120   86.4110   82.1650 C.3   123  LEU123      0.0284
    156  CG        73.0090   85.2480   82.5680 C.3   123  LEU123      0.0019
    157  CD1       72.8500   85.2470   84.0980 C.3   123  LEU123      0.0001
    158  CD2       71.6540   85.3920   81.8830 C.3   123  LEU123      0.0001
    159  N         76.5460   88.0610   82.3180 N.am  124  ALA124     -0.1980
    160  CA        77.3020   89.2720   81.9830 C.3   124  ALA124      0.1597
    161  C         78.3880   88.9910   80.9410 C.2   124  ALA124      0.2287
    162  O         78.4950   89.7100   79.9360 O.2   124  ALA124     -0.2864
    163  CB        77.9420   89.8800   83.2420 C.3   124  ALA124      0.0319
    164  N         78.5930   86.4690   78.9400 N.3   126  VAL126     -0.1231
    165  CA        77.9610   86.0060   77.7080 C.3   126  VAL126      0.1692
    166  C         77.6720   87.2240   76.8410 C.2   126  VAL126      0.2592
    167  O         77.8180   87.1760   75.6180 O.2   126  VAL126     -0.2718
    168  CB        76.6370   85.2670   78.0130 C.3   126  VAL126      0.0266
    169  CG1       76.0150   84.7430   76.7320 C.3   126  VAL126      0.0020
    170  CG2       76.8990   84.1250   78.9880 C.3   126  VAL126      0.0020
    171  N         77.2740   88.3180   77.4900 N.am  127  LEU127     -0.1966
    172  CA        76.9790   89.5690   76.7980 C.3   127  LEU127      0.1728
    173  C         78.2690   90.2710   76.3500 C.2   127  LEU127      0.2616
    174  O         78.4100   90.6630   75.1880 O.2   127  LEU127     -0.2715
    175  CB        76.1860   90.5090   77.7120 C.3   127  LEU127      0.0311
    176  CG        75.7930   91.8790   77.1290 C.3   127  LEU127      0.0022
    177  CD1       74.6630   91.7340   76.1130 C.3   127  LEU127      0.0001
    178  CD2       75.3520   92.7910   78.2630 C.3   127  LEU127      0.0001
    179  N         79.2010   90.4310   77.2840 N.am  128  VAL128     -0.1963
    180  CA        80.4700   91.0800   77.0000 C.3   128  VAL128      0.1727
    181  C         81.1150   90.4880   75.7540 C.2   128  VAL128      0.2616
    182  O         81.7850   91.1930   74.9950 O.2   128  VAL128     -0.2715
    183  CB        81.4370   90.9250   78.1910 C.3   128  VAL128      0.0290
    184  CG1       82.8180   91.4590   77.8320 C.3   128  VAL128      0.0023
    185  CG2       80.8820   91.6670   79.3900 C.3   128  VAL128      0.0023
    186  N         80.9050   89.1920   75.5490 N.am  129  TRP129     -0.1974
    187  CA        81.4700   88.4930   74.3990 C.3   129  TRP129      0.1640
    188  C         80.5320   88.4740   73.1870 C.2   129  TRP129      0.2290
    189  O         80.9950   88.8790   72.0950 O.2   129  TRP129     -0.2864
    190  CB        81.8320   87.0650   74.8050 C.3   129  TRP129      0.0576
    191  CG        83.3000   86.7500   74.6670 C.ar  129  TRP129      0.0006
    192  CD1       84.3560   87.5430   75.0470 C.ar  129  TRP129      0.0946
    193  CD2       83.8740   85.5310   74.1630 C.ar  129  TRP129      0.0152
    194  NE1       85.5510   86.8890   74.8110 N.ar  129  TRP129     -0.2442
    195  CE2       85.2850   85.6550   74.2710 C.ar  129  TRP129      0.0810
    196  CE3       83.3360   84.3450   73.6330 C.ar  129  TRP129      0.0012
    197  CZ2       86.1650   84.6320   73.8670 C.ar  129  TRP129      0.0191
    198  CZ3       84.2120   83.3310   73.2330 C.ar  129  TRP129      0.0001
    199  CH2       85.6110   83.4840   73.3530 C.ar  129  TRP129      0.0015
@<TRIPOS>BOND
     1    60    62   ar
     2    60    58   ar
     3    57    58    1
     4    57    54    1
     5    62    63   ar
     6    55    54    1
     7    55    56    2
     8    53    54    1
     9    58    59   ar
    10    74    73    1
    11    73    70    1
    12    63    61   ar
    13    59    61   ar
    14    71    70    1
    15    71    72    2
    16    70    69    1
    17    64    65    1
    18    69    66   am
    19    50    49    2
    20    66    65    1
    21    66    67    2
    22    65    68    1
    23    49    48    1
    24    48    47    1
    25    48    51    1
    26   189   188    2
    27    51    52    1
    28    75    76    1
    29    77    78    2
    30    77    76    1
    31    90    91    1
    32    90    89    1
    33    79    76    1
    34    79    80    1
    35   188   187    1
    36   198   199   ar
    37   198   196   ar
    38   199   197   ar
    39   196   193   ar
    40   197   195   ar
    41   193   195   ar
    42   193   191   ar
    43    80    81    1
    44    42    41    2
    45   195   194   ar
    46    89    88    1
    47   187   190    1
    48   187   186    1
    49    34    33    2
    50   191   190    1
    51   191   192   ar
    52   194   192   ar
    53   182   181    2
    54    38    36    1
    55    88    87    1
    56   174   173    2
    57    41    40    1
    58    82    81    1
    59   186   181   am
    60   167   166    2
    61    33    32    1
    62    33    39   am
    63   181   180    1
    64    45    44    1
    65    40    39    1
    66    40    43    1
    67   177   176    1
    68    32    35    1
    69    32    31    1
    70   173   172    1
    71   173   179   am
    72    36    35    1
    73    36    37    1
    74    87    84    1
    75   169   168    1
    76   172   171    1
    77   172   175    1
    78    44    43    1
    79    44    46    1
    80   166   171   am
    81   166   165    1
    82   180   179    1
    83   180   183    1
    84    83    84    1
    85   176   175    1
    86   176   178    1
    87    84    85    1
    88   165   168    1
    89   165   164    1
    90   184   183    1
    91   168   170    1
    92   183   185    1
    93    26    25    2
    94    85    86    2
    95    97    96    1
    96    97    98    1
    97    18    17    2
    98    25    24    1
    99    96    93    1
   100    98    99    1
   101   162   161    2
   102   154   153    2
   103    17    16    1
   104    17    23   am
   105    24    23    1
   106    24    27    1
   107    22    20    1
   108    93    92    1
   109    93    94    1
   110   161   160    1
   111    16    15    1
   112    16    19    1
   113   153   152    1
   114   153   159   am
   115    30    28    1
   116    27    28    1
   117   106   105    1
   118    94    95    2
   119   152   155    1
   120   152   151    1
   121    19    20    1
   122   158   156    1
   123   160   159    1
   124   160   163    1
   125    20    21    1
   126   155   156    1
   127    28    29    1
   128   156   157    1
   129   105   107    1
   130   105   104    1
   131    11    10    2
   132   104   101    1
   133    10     9    1
   134   146   145    2
   135   100   101    1
   136   101   102    1
   137     9     8    1
   138     9    12    1
   139    13    12    1
   140   145   144    1
   141   102   103    2
   142    12    14    1
   143   150   148    1
   144   144   143    1
   145   144   147    1
   146   115   113    1
   147   147   148    1
   148   148   149    1
   149   113   112    1
   150   113   114    1
   151   112   109    1
   152   120   117    1
   153     4     3    2
   154   116   117    1
   155   116   110   am
   156   108   109    1
   157   109   110    1
   158   117   118    1
   159     7     5    1
   160   110   111    2
   161     3     2    1
   162     2     5    1
   163     2     1    1
   164     5     6    1
   165   127   125    1
   166   118   119    2
   167   126   125    1
   168   125   122    1
   169   134   132    1
   170   122   121    1
   171   122   123    1
   172   128   123   am
   173   128   129    1
   174   142   140    1
   175   123   124    2
   176   132   129    1
   177   132   133    1
   178   129   130    1
   179   140   139    1
   180   130   131    2
   181   139   141    1
   182   139   136    1
   183   135   136    1
   184   136   137    1
   185   137   138    2
