@<TRIPOS>MOLECULE
tmp/2aczD00.pdb
 97 90 0 0 0
SMALL
GASTEIGER

@<TRIPOS>ATOM
      1  N         69.4120  106.6370  100.7010 N.3    17  VAL17      -0.1231
      2  CA        70.1420  105.5160  100.0810 C.3    17  VAL17       0.1692
      3  C         69.1700  104.4660   99.5110 C.2    17  VAL17       0.2591
      4  O         69.2020  104.1440   98.3170 O.2    17  VAL17      -0.2718
      5  CB        71.0630  104.8150  101.1210 C.3    17  VAL17       0.0266
      6  CG1       71.6150  103.5180  100.5440 C.3    17  VAL17       0.0020
      7  CG2       72.1970  105.7500  101.5220 C.3    17  VAL17       0.0020
      8  N         68.3160  103.9480  100.4010 N.am   18  ARG18      -0.1980
      9  CA        67.3140  102.9430  100.0710 C.3    18  ARG18       0.1597
     10  C         66.4070  103.3270   98.9110 C.2    18  ARG18       0.2287
     11  O         66.1560  102.5140   98.0050 O.2    18  ARG18      -0.2864
     12  CB        66.4570  102.6430  101.2890 C.3    18  ARG18       0.0334
     13  CG        67.0640  101.6070  102.2350 C.3    18  ARG18       0.0492
     14  CD        68.3620  102.0700  102.8560 C.3    18  ARG18       0.2205
     15  NE        68.9160  101.0490  103.7280 N.pl3  18  ARG18      -0.0865
     16  CZ        70.1740  101.0390  104.1680 C.cat  18  ARG18       0.5346
     17  NH1       71.0190  102.0060  103.8250 N.pl3  18  ARG18       0.1354
     18  NH2       70.6070  100.0420  104.9360 N.pl3  18  ARG18       0.1354
     19  N         68.2490  103.2990   95.6350 N.3    21  ALA21      -0.1245
     20  CA        68.5870  101.9170   95.2860 C.3    21  ALA21       0.1562
     21  C         67.4570  101.4050   94.3920 C.2    21  ALA21       0.2260
     22  O         67.6830  101.0630   93.2220 O.2    21  ALA21      -0.2867
     23  CB        68.6820  101.0670   96.5370 C.3    21  ALA21       0.0290
     24  N         67.3740  102.9700   91.1580 N.3    24  LEU24      -0.1231
     25  CA        68.5330  102.4890   90.4200 C.3    24  LEU24       0.1693
     26  C         68.4750  101.0370   89.9960 C.2    24  LEU24       0.2592
     27  O         69.1720  100.6370   89.0510 O.2    24  LEU24      -0.2718
     28  CB        69.8090  102.7740   91.2000 C.3    24  LEU24       0.0284
     29  CG        70.2560  104.2230   90.9900 C.3    24  LEU24       0.0019
     30  CD1       71.3560  104.5630   91.9390 C.3    24  LEU24       0.0001
     31  CD2       70.7170  104.4050   89.5470 C.3    24  LEU24       0.0001
     32  N         67.6250  100.2690   90.6850 N.am   25  THR25      -0.1953
     33  CA        67.3810   98.8420   90.4020 C.3    25  THR25       0.1897
     34  C         66.5010   98.7160   89.1610 C.2    25  THR25       0.2313
     35  O         66.8620   98.0430   88.1960 O.2    25  THR25      -0.2863
     36  CB        66.6470   98.1770   91.5490 C.3    25  THR25       0.1794
     37  OG1       67.5510   97.9500   92.6370 O.3    25  THR25      -0.2208
     38  CG2       66.0610   96.8920   91.0920 C.3    25  THR25       0.0378
     39  N         68.3300   99.5730   85.9880 N.3    28  ILE28      -0.1245
     40  CA        69.2580   98.5330   85.5470 C.3    28  ILE28       0.1561
     41  C         68.4570   97.4190   84.8730 C.2    28  ILE28       0.2260
     42  O         68.7740   97.0360   83.7480 O.2    28  ILE28      -0.2867
     43  CB        70.0910   97.9540   86.7350 C.3    28  ILE28       0.0252
     44  CG1       71.0170   99.0420   87.3120 C.3    28  ILE28       0.0019
     45  CG2       70.9140   96.7510   86.2660 C.3    28  ILE28       0.0019
     46  CD1       71.9080   98.5680   88.4380 C.3    28  ILE28       0.0001
     47  N         72.3050  108.3800   91.2060 N.3    66  ILE66      -0.1245
     48  CA        73.6170  107.9070   91.5770 C.3    66  ILE66       0.1561
     49  C         74.2950  108.9950   92.4300 C.2    66  ILE66       0.2260
     50  O         74.8470  108.6920   93.5050 O.2    66  ILE66      -0.2867
     51  CB        74.4370  107.5600   90.3320 C.3    66  ILE66       0.0252
     52  CG1       73.6930  106.5060   89.5190 C.3    66  ILE66       0.0019
     53  CG2       75.8050  107.0190   90.7420 C.3    66  ILE66       0.0019
     54  CD1       74.3990  106.1260   88.2770 C.3    66  ILE66       0.0001
     55  N         72.9340  108.6260   95.8550 N.3    69  HIS69      -0.1226
     56  CA        73.3210  107.3290   96.4090 C.3    69  HIS69       0.1752
     57  C         74.8290  107.2390   96.6810 C.2    69  HIS69       0.2595
     58  O         75.2520  107.0580   97.8280 O.2    69  HIS69      -0.2718
     59  CB        72.9000  106.2050   95.4460 C.3    69  HIS69       0.0759
     60  CG        73.0190  104.8290   96.0290 C.ar   69  HIS69       0.0818
     61  ND1       71.9930  104.2230   96.7220 N.ar   69  HIS69      -0.2268
     62  CD2       74.0630  103.9700   96.0790 C.ar   69  HIS69       0.1154
     63  CE1       72.4000  103.0510   97.1800 C.ar   69  HIS69       0.1986
     64  NE2       73.6530  102.8740   96.8040 N.ar   69  HIS69      -0.2212
     65  N         75.6250  107.3670   95.6170 N.am   70  ALA70      -0.1980
     66  CA        77.0810  107.2960   95.7070 C.3    70  ALA70       0.1597
     67  C         77.6670  108.3480   96.6510 C.2    70  ALA70       0.2287
     68  O         78.5930  108.0550   97.3900 O.2    70  ALA70      -0.2864
     69  CB        77.6890  107.4360   94.3290 C.3    70  ALA70       0.0319
     70  N         77.3230  106.8860  100.1270 N.3    73  GLY73      -0.1210
     71  CA        78.1290  105.6880  100.3350 C.3    73  GLY73       0.1956
     72  C         79.5960  106.0350  100.4820 C.2    73  GLY73       0.2611
     73  O         80.2240  105.7270  101.4860 O.2    73  GLY73      -0.2717
     74  N         80.1290  106.6920   99.4590 N.am   74  MET74      -0.1979
     75  CA        81.5070  107.1520   99.4450 C.3    74  MET74       0.1605
     76  C         81.8070  108.0150  100.6740 C.2    74  MET74       0.2287
     77  O         82.9320  107.9980  101.1880 O.2    74  MET74      -0.2864
     78  CB        81.7740  107.9460   98.1810 C.3    74  MET74       0.0413
     79  CG        81.5690  107.1370   96.9310 C.3    74  MET74       0.0598
     80  SD        82.4480  105.5230   96.9200 S.3    74  MET74      -0.1393
     81  CE        84.2560  106.0730   97.2490 C.3    74  MET74       0.0692
     82  N         80.4220  107.5220  103.4760 N.3    76  GLN76      -0.1231
     83  CA        80.4690  106.4990  104.5150 C.3    76  GLN76       0.1698
     84  C         81.8340  105.7760  104.5860 C.2    76  GLN76       0.2592
     85  O         82.3250  105.4520  105.6720 O.2    76  GLN76      -0.2718
     86  CB        79.3370  105.4840  104.3020 C.3    76  GLN76       0.0381
     87  CG        78.0200  105.9340  104.9030 C.3    76  GLN76       0.0905
     88  CD        76.8430  105.0170  104.5940 C.2    76  GLN76       0.2608
     89  OE1       75.7110  105.3160  104.9900 O.2    76  GLN76      -0.2717
     90  NE2       77.0950  103.9070  103.8830 N.am   76  GLN76      -0.0878
     91  N         82.4430  105.5400  103.4270 N.am   77  VAL77      -0.1980
     92  CA        83.7400  104.8720  103.3580 C.3    77  VAL77       0.1595
     93  C         84.8340  105.7990  103.8480 C.2    77  VAL77       0.2287
     94  O         85.5140  105.4880  104.8190 O.2    77  VAL77      -0.2864
     95  CB        84.0980  104.4430  101.9070 C.3    77  VAL77       0.0276
     96  CG1       85.5570  104.0230  101.8320 C.3    77  VAL77       0.0022
     97  CG2       83.1950  103.3060  101.4600 C.3    77  VAL77       0.0022
@<TRIPOS>BOND
     1    42    41    2
     2    41    40    1
     3    40    39    1
     4    40    43    1
     5    45    43    1
     6    43    44    1
     7    44    46    1
     8    35    34    2
     9    54    52    1
    10    27    26    2
    11    34    33    1
    12    52    51    1
    13    31    29    1
    14    26    25    1
    15    26    32   am
    16    51    53    1
    17    51    48    1
    18    33    32    1
    19    33    36    1
    20    25    24    1
    21    25    28    1
    22    29    28    1
    23    29    30    1
    24    38    36    1
    25    47    48    1
    26    36    37    1
    27    48    49    1
    28    49    50    2
    29    22    21    2
    30    69    66    1
    31    21    20    1
    32    20    19    1
    33    20    23    1
    34    59    60    1
    35    59    56    1
    36    65    66    1
    37    65    57   am
    38    66    67    1
    39    55    56    1
    40    60    62   ar
    41    60    61   ar
    42    62    64   ar
    43    56    57    1
    44    67    68    2
    45    57    58    2
    46    61    63   ar
    47    64    63   ar
    48    80    79    1
    49    80    81    1
    50    79    78    1
    51    11    10    2
    52    78    75    1
    53     4     3    2
    54    10     9    1
    55    75    74    1
    56    75    76    1
    57    74    72   am
    58     3     2    1
    59     3     8   am
    60     9     8    1
    61     9    12    1
    62     2     1    1
    63     2     5    1
    64    70    71    1
    65    71    72    1
    66    72    73    2
    67     6     5    1
    68    76    77    2
    69     5     7    1
    70    12    13    1
    71    97    95    1
    72    96    95    1
    73    95    92    1
    74    13    14    1
    75    14    15    1
    76    92    91    1
    77    92    93    1
    78    91    84   am
    79    82    83    1
    80    15    16    2
    81    17    16    1
    82    93    94    2
    83    90    88   am
    84    16    18    1
    85    86    83    1
    86    86    87    1
    87    83    84    1
    88    84    85    2
    89    88    87    1
    90    88    89    2
