@<TRIPOS>MOLECULE
tmp/2addA02.pdb
 138 134 0 0 0
SMALL
GASTEIGER

@<TRIPOS>ATOM
      1  N         13.5050   66.7130   -8.5090 N.3    20  ASN20      -0.1225
      2  CA        13.1250   66.4040   -7.1450 C.3    20  ASN20       0.1785
      3  C         12.1950   65.1800   -7.0850 C.2    20  ASN20       0.2597
      4  O         12.6100   64.0830   -7.4670 O.2    20  ASN20      -0.2718
      5  CB        12.5710   67.6340   -6.3650 C.3    20  ASN20       0.1169
      6  CG        11.4100   68.3480   -7.0530 C.2    20  ASN20       0.2627
      7  OD1       11.5450   68.8770   -8.1550 O.2    20  ASN20      -0.2716
      8  ND2       10.2650   68.3940   -6.3750 N.am   20  ASN20      -0.0877
      9  N         10.9560   65.3540   -6.6460 N.am   21  ASP21      -0.1974
     10  CA        10.0090   64.2440   -6.4740 C.3    21  ASP21       0.1709
     11  C          9.7660   63.1870   -7.5660 C.2    21  ASP21       0.2293
     12  O          9.5260   63.5110   -8.7320 O.2    21  ASP21      -0.2864
     13  CB         8.6480   64.8130   -6.0730 C.3    21  ASP21       0.1436
     14  CG         8.7170   65.6720   -4.8300 C.2    21  ASP21       0.3671
     15  OD1        9.8280   66.1280   -4.4700 O.co2  21  ASP21      -0.2456
     16  OD2        7.6500   65.9030   -4.2220 O.co2  21  ASP21      -0.2456
     17  N          9.7710   65.2750  -11.0060 N.3    37  GLN37      -0.1245
     18  CA         9.6910   66.7240  -11.0600 C.3    37  GLN37       0.1566
     19  C         11.0100   67.1930  -11.6660 C.2    37  GLN37       0.2260
     20  O         12.0920   66.8590  -11.1700 O.2    37  GLN37      -0.2867
     21  CB         9.5000   67.2810   -9.6500 C.3    37  GLN37       0.0367
     22  CG         8.1510   66.9270   -9.0620 C.3    37  GLN37       0.0905
     23  CD         7.0170   67.6550   -9.7600 C.2    37  GLN37       0.2608
     24  OE1        6.7210   68.8070   -9.4500 O.2    37  GLN37      -0.2717
     25  NE2        6.3890   66.9920  -10.7200 N.am   37  GLN37      -0.0878
     26  N         15.2000   74.8590   -8.1360 N.3    45  PHE45      -0.1241
     27  CA        13.7590   74.7890   -8.3310 C.3    45  PHE45       0.1605
     28  C         13.3810   76.0040   -9.1880 C.2    45  PHE45       0.2264
     29  O         14.1560   76.9610   -9.2810 O.2    45  PHE45      -0.2867
     30  CB        13.0260   74.8460   -6.9940 C.3    45  PHE45       0.0534
     31  CG        11.5880   74.4280   -7.0820 C.ar   45  PHE45      -0.0203
     32  CD1       11.2530   73.1010   -7.3530 C.ar   45  PHE45      -0.0042
     33  CD2       10.5660   75.3580   -6.9180 C.ar   45  PHE45      -0.0042
     34  CE1        9.9180   72.7070   -7.4600 C.ar   45  PHE45      -0.0003
     35  CE2        9.2300   74.9760   -7.0220 C.ar   45  PHE45      -0.0003
     36  CZ         8.9050   73.6450   -7.2940 C.ar   45  PHE45      -0.0000
     37  N          3.0260   69.6250  -11.0140 N.3    81  TRP81      -0.1227
     38  CA         3.6550   69.0400   -9.8470 C.3    81  TRP81       0.1737
     39  C          3.3260   67.5560   -9.6370 C.2    81  TRP81       0.2596
     40  O          2.6820   66.9310  -10.4800 O.2    81  TRP81      -0.2718
     41  CB         3.3440   69.9000   -8.6160 C.3    81  TRP81       0.0564
     42  CG         3.9640   71.2880   -8.7500 C.ar   81  TRP81       0.0003
     43  CD1        5.1960   71.5880   -9.2800 C.ar   81  TRP81       0.0946
     44  CD2        3.3970   72.5430   -8.3360 C.ar   81  TRP81       0.0152
     45  NE1        5.4270   72.9430   -9.2160 N.ar   81  TRP81      -0.2442
     46  CE2        4.3420   73.5530   -8.6430 C.ar   81  TRP81       0.0810
     47  CE3        2.1840   72.9110   -7.7330 C.ar   81  TRP81       0.0012
     48  CZ2        4.1100   74.9100   -8.3690 C.ar   81  TRP81       0.0191
     49  CZ3        1.9530   74.2610   -7.4590 C.ar   81  TRP81       0.0001
     50  CH2        2.9140   75.2430   -7.7780 C.ar   81  TRP81       0.0015
     51  N          3.7860   67.0010   -8.5210 N.am   82  SER82      -0.1952
     52  CA         3.6310   65.5800   -8.2140 C.3    82  SER82       0.1924
     53  C          2.2930   64.8790   -8.4050 C.2    82  SER82       0.2314
     54  O          1.2220   65.4620   -8.2260 O.2    82  SER82      -0.2863
     55  CB         4.1490   65.3110   -6.8000 C.3    82  SER82       0.2116
     56  OG         5.5320   65.5980   -6.7370 O.3    82  SER82      -0.2180
     57  N         -3.5580   75.0500   -6.4810 N.3   106  GLN106     -0.1245
     58  CA        -3.1000   73.6810   -6.6290 C.3   106  GLN106      0.1566
     59  C         -4.3740   72.8800   -6.8430 C.2   106  GLN106      0.2260
     60  O         -5.2480   72.8410   -5.9770 O.2   106  GLN106     -0.2867
     61  CB        -2.3490   73.2230   -5.3760 C.3   106  GLN106      0.0367
     62  CG        -1.1340   74.1050   -5.0810 C.3   106  GLN106      0.0905
     63  CD        -0.2780   73.6150   -3.9280 C.2   106  GLN106      0.2608
     64  OE1       -0.7290   72.8470   -3.0760 O.2   106  GLN106     -0.2717
     65  NE2        0.9670   74.0770   -3.8880 N.am  106  GLN106     -0.0878
     66  N         -2.7200   76.7390   -1.8340 N.3   142  ASP142     -0.1239
     67  CA        -1.3880   76.1630   -1.9580 C.3   142  ASP142      0.1674
     68  C         -1.0990   75.1100   -0.8890 C.2   142  ASP142      0.2266
     69  O          0.0560   74.8820   -0.5250 O.2   142  ASP142     -0.2867
     70  CB        -0.3290   77.2690   -1.9210 C.3   142  ASP142      0.1410
     71  CG        -0.3200   78.0320   -0.6130 C.2   142  ASP142      0.3668
     72  OD1        0.5740   78.8860   -0.4460 O.co2 142  ASP142     -0.2456
     73  OD2       -1.1910   77.7860    0.2500 O.co2 142  ASP142     -0.2456
     74  N         -2.2720   69.0660   -2.4560 N.3   145  ARG145     -0.1231
     75  CA        -1.5560   68.4360   -3.5610 C.3   145  ARG145      0.1694
     76  C         -1.1070   66.9870   -3.3820 C.2   145  ARG145      0.2592
     77  O         -1.3140   66.3610   -2.3390 O.2   145  ARG145     -0.2718
     78  CB        -0.3180   69.2740   -3.8710 C.3   145  ARG145      0.0321
     79  CG         0.5830   69.4510   -2.6450 C.3   145  ARG145      0.0489
     80  CD         1.8510   70.2190   -2.9670 C.3   145  ARG145      0.2205
     81  NE         2.6360   70.5080   -1.7710 N.pl3 145  ARG145     -0.0865
     82  CZ         2.2660   71.3560   -0.8140 C.cat 145  ARG145      0.5346
     83  NH1        1.1150   72.0130   -0.9080 N.pl3 145  ARG145      0.1354
     84  NH2        3.0470   71.5470    0.2420 N.pl3 145  ARG145      0.1354
     85  N         -0.4810   66.4850   -4.4430 N.am  146  ASP146     -0.1974
     86  CA         0.0900   65.1450   -4.5170 C.3   146  ASP146      0.1709
     87  C         -0.8580   63.9570   -4.3890 C.2   146  ASP146      0.2293
     88  O         -0.7870   63.2000   -3.4170 O.2   146  ASP146     -0.2864
     89  CB         1.2120   65.0080   -3.4810 C.3   146  ASP146      0.1436
     90  CG         2.1450   66.2100   -3.4660 C.2   146  ASP146      0.3671
     91  OD1        2.2560   66.9060   -4.5000 O.co2 146  ASP146     -0.2456
     92  OD2        2.7810   66.4530   -2.4200 O.co2 146  ASP146     -0.2456
     93  N          2.7990   66.0160    2.4870 N.3   200  GLU200     -0.1231
     94  CA         3.2490   65.9430    1.1080 C.3   200  GLU200      0.1699
     95  C          3.4340   64.5160    0.5820 C.2   200  GLU200      0.2592
     96  O          3.9050   63.6250    1.3010 O.2   200  GLU200     -0.2718
     97  CB         4.5390   66.7510    0.9590 C.3   200  GLU200      0.0402
     98  CG         4.3370   68.2360    1.2430 C.3   200  GLU200      0.1161
     99  CD         5.6000   69.0560    1.0700 C.2   200  GLU200      0.3649
    100  OE1        5.4870   70.2280    0.6550 O.co2 200  GLU200     -0.2457
    101  OE2        6.7030   68.5390    1.3540 O.co2 200  GLU200     -0.2457
    102  N          3.0460   64.3120   -0.6760 N.am  201  CYS201     -0.1970
    103  CA         3.1520   63.0130   -1.3430 C.3   201  CYS201      0.1712
    104  C          2.6810   61.8560   -0.4750 C.2   201  CYS201      0.2296
    105  O          3.4440   60.9350   -0.1800 O.2   201  CYS201     -0.2864
    106  CB         4.5950   62.7660   -1.7820 C.3   201  CYS201      0.0983
    107  SG         5.2090   64.0260   -2.9210 S.3   201  CYS201     -0.0798
    108  N         13.2640   61.9070    0.7180 N.3   273  TYR273     -0.1227
    109  CA        11.9850   62.6150    0.7680 C.3   273  TYR273      0.1736
    110  C         11.0680   62.3920   -0.4430 C.2   273  TYR273      0.2595
    111  O         11.5200   62.0110   -1.5280 O.2   273  TYR273     -0.2718
    112  CB        12.2270   64.1280    0.9480 C.3   273  TYR273      0.0548
    113  CG        11.0100   64.8770    1.4510 C.ar  273  TYR273     -0.0200
    114  CD1       10.5550   64.6970    2.7610 C.ar  273  TYR273     -0.0009
    115  CD2       10.2730   65.7160    0.6050 C.ar  273  TYR273     -0.0009
    116  CE1        9.3960   65.3240    3.2220 C.ar  273  TYR273      0.0417
    117  CE2        9.1050   66.3520    1.0530 C.ar  273  TYR273      0.0417
    118  CZ         8.6730   66.1460    2.3660 C.ar  273  TYR273      0.1957
    119  OH         7.5140   66.7360    2.8280 O.3   273  TYR273     -0.2866
    120  N          9.7750   62.6360   -0.2410 N.am  274  ALA274     -0.1980
    121  CA         8.7860   62.4850   -1.3030 C.3   274  ALA274      0.1597
    122  C          8.7740   61.0680   -1.8750 C.2   274  ALA274      0.2287
    123  O          8.4850   60.8650   -3.0550 O.2   274  ALA274     -0.2864
    124  CB         9.0620   63.5000   -2.4180 C.3   274  ALA274      0.0319
    125  N         13.3070   60.8010   -3.5840 N.3   291  TRP291     -0.1241
    126  CA        14.1850   61.8700   -4.0100 C.3   291  TRP291      0.1605
    127  C         15.2330   62.0680   -2.9210 C.2   291  TRP291      0.2264
    128  O         14.9110   62.0610   -1.7340 O.2   291  TRP291     -0.2867
    129  CB        13.3730   63.1560   -4.2140 C.3   291  TRP291      0.0550
    130  CG        14.1930   64.4150   -4.3110 C.ar  291  TRP291      0.0003
    131  CD1       15.2590   64.6460   -5.1370 C.ar  291  TRP291      0.0946
    132  CD2       13.9970   65.6230   -3.5620 C.ar  291  TRP291      0.0152
    133  NE1       15.7390   65.9230   -4.9470 N.ar  291  TRP291     -0.2442
    134  CE2       14.9840   66.5430   -3.9860 C.ar  291  TRP291      0.0810
    135  CE3       13.0830   66.0150   -2.5720 C.ar  291  TRP291      0.0012
    136  CZ2       15.0850   67.8350   -3.4530 C.ar  291  TRP291      0.0191
    137  CZ3       13.1820   67.2970   -2.0410 C.ar  291  TRP291      0.0001
    138  CH2       14.1790   68.1930   -2.4840 C.ar  291  TRP291      0.0015
@<TRIPOS>BOND
     1    19    20    2
     2    19    18    1
     3    18    17    1
     4    18    21    1
     5    37    38    1
     6    25    23   am
     7    40    39    2
     8    38    39    1
     9    38    41    1
    10    23    24    2
    11    23    22    1
    12    21    22    1
    13    39    51   am
    14    29    28    2
    15    43    45   ar
    16    43    42   ar
    17    45    46   ar
    18    28    27    1
    19    42    41    1
    20    42    44   ar
    21    12    11    2
    22    46    48   ar
    23    46    44   ar
    24    51    52    1
    25     1     2    1
    26    53    54    2
    27    53    52    1
    28    48    50   ar
    29    44    47   ar
    30    27    26    1
    31    27    30    1
    32    52    55    1
    33     7     6    2
    34    50    49   ar
    35    47    49   ar
    36    11    10    1
    37     4     3    2
    38    34    32   ar
    39    34    36   ar
    40    32    31   ar
    41    36    35   ar
    42     2     3    1
    43     2     5    1
    44     3     9   am
    45    31    30    1
    46    31    33   ar
    47     6     8   am
    48     6     5    1
    49    35    33   ar
    50    59    58    1
    51    59    60    2
    52    55    56    1
    53     9    10    1
    54    58    57    1
    55    58    61    1
    56    10    13    1
    57    13    14    1
    58    61    62    1
    59   131   133   ar
    60   131   130   ar
    61    62    63    1
    62   133   134   ar
    63    14    15   ar
    64    14    16   ar
    65    86    85    1
    66    86    87    1
    67    86    89    1
    68    91    90   ar
    69    85    76   am
    70    87    88    2
    71   130   129    1
    72   130   132   ar
    73   129   126    1
    74   126   125    1
    75   126   127    1
    76   134   132   ar
    77   134   136   ar
    78    63    65   am
    79    63    64    2
    80    78    75    1
    81    78    79    1
    82   132   135   ar
    83    75    76    1
    84    75    74    1
    85    89    90    1
    86    90    92   ar
    87   136   138   ar
    88    76    77    2
    89   123   122    2
    90    80    79    1
    91    80    81    1
    92   127   128    2
    93   107   106    1
    94   135   137   ar
    95   138   137   ar
    96   124   121    1
    97    67    70    1
    98    67    66    1
    99    67    68    1
   100    70    71    1
   101   122   121    1
   102   106   103    1
   103    81    82    2
   104   111   110    2
   105   103   102    1
   106   103   104    1
   107   121   120    1
   108    83    82    1
   109    68    69    2
   110    82    84    1
   111   102    95   am
   112    71    72   ar
   113    71    73   ar
   114   104   105    2
   115   110   120   am
   116   110   109    1
   117    95    94    1
   118    95    96    2
   119   115   117   ar
   120   115   113   ar
   121   100    99   ar
   122   108   109    1
   123   109   112    1
   124   112   113    1
   125    97    94    1
   126    97    98    1
   127   117   118   ar
   128    99    98    1
   129    99   101   ar
   130    94    93    1
   131   113   114   ar
   132   118   119    1
   133   118   116   ar
   134   114   116   ar
