@<TRIPOS>MOLECULE
tmp/2adeA02.pdb
 116 114 0 0 0
SMALL
GASTEIGER

@<TRIPOS>ATOM
      1  N         13.5300   66.6930   -8.5600 N.3    20  ASN20      -0.1225
      2  CA        13.1310   66.3810   -7.1940 C.3    20  ASN20       0.1785
      3  C         12.1950   65.1620   -7.1450 C.2    20  ASN20       0.2597
      4  O         12.5730   64.0870   -7.6020 O.2    20  ASN20      -0.2718
      5  CB        12.5650   67.6040   -6.4180 C.3    20  ASN20       0.1169
      6  CG        11.4600   68.3540   -7.1520 C.2    20  ASN20       0.2627
      7  OD1       11.6900   68.9730   -8.1870 O.2    20  ASN20      -0.2716
      8  ND2       10.2550   68.3220   -6.5910 N.am   20  ASN20      -0.0877
      9  N         10.9930   65.3160   -6.6050 N.am   21  ASP21      -0.1974
     10  CA        10.0340   64.2130   -6.4640 C.3    21  ASP21       0.1709
     11  C          9.8790   63.1750   -7.5700 C.2    21  ASP21       0.2293
     12  O          9.7200   63.5160   -8.7410 O.2    21  ASP21      -0.2864
     13  CB         8.6430   64.7750   -6.2210 C.3    21  ASP21       0.1436
     14  CG         8.5790   65.6690   -5.0260 C.2    21  ASP21       0.3671
     15  OD1        9.6020   66.3100   -4.6860 O.co2  21  ASP21      -0.2456
     16  OD2        7.4820   65.7410   -4.4390 O.co2  21  ASP21      -0.2456
     17  N          9.8080   65.2470  -11.0180 N.3    37  GLN37      -0.1245
     18  CA         9.7280   66.7020  -11.0510 C.3    37  GLN37       0.1566
     19  C         11.0480   67.2030  -11.6480 C.2    37  GLN37       0.2260
     20  O         12.1310   66.9150  -11.1270 O.2    37  GLN37      -0.2867
     21  CB         9.5360   67.2410   -9.6300 C.3    37  GLN37       0.0367
     22  CG         8.1760   66.9120   -9.0440 C.3    37  GLN37       0.0905
     23  CD         7.0500   67.6510   -9.7500 C.2    37  GLN37       0.2608
     24  OE1        6.7790   68.8190   -9.4660 O.2    37  GLN37      -0.2717
     25  NE2        6.4010   66.9780  -10.6910 N.am   37  GLN37      -0.0878
     26  N         15.2630   74.8020   -8.1750 N.3    45  PHE45      -0.1241
     27  CA        13.8310   74.7390   -8.3860 C.3    45  PHE45       0.1605
     28  C         13.4640   75.9900   -9.1910 C.2    45  PHE45       0.2264
     29  O         14.2240   76.9640   -9.2090 O.2    45  PHE45      -0.2867
     30  CB        13.1010   74.7480   -7.0520 C.3    45  PHE45       0.0534
     31  CG        11.6720   74.3220   -7.1510 C.ar   45  PHE45      -0.0203
     32  CD1       11.3470   72.9900   -7.4030 C.ar   45  PHE45      -0.0042
     33  CD2       10.6460   75.2490   -6.9990 C.ar   45  PHE45      -0.0042
     34  CE1       10.0140   72.5850   -7.5010 C.ar   45  PHE45      -0.0003
     35  CE2        9.3130   74.8610   -7.0940 C.ar   45  PHE45      -0.0003
     36  CZ         8.9930   73.5240   -7.3440 C.ar   45  PHE45      -0.0000
     37  N          3.0970   69.6340  -11.0380 N.3    81  TRP81      -0.1227
     38  CA         3.7450   69.0540   -9.8770 C.3    81  TRP81       0.1737
     39  C          3.4470   67.5730   -9.6600 C.2    81  TRP81       0.2596
     40  O          2.7850   66.9380  -10.4760 O.2    81  TRP81      -0.2718
     41  CB         3.4320   69.8920   -8.6370 C.3    81  TRP81       0.0564
     42  CG         4.0270   71.2800   -8.7610 C.ar   81  TRP81       0.0003
     43  CD1        5.2280   71.6060   -9.3350 C.ar   81  TRP81       0.0946
     44  CD2        3.4570   72.5160   -8.3060 C.ar   81  TRP81       0.0152
     45  NE1        5.4360   72.9610   -9.2670 N.ar   81  TRP81      -0.2442
     46  CE2        4.3660   73.5460   -8.6400 C.ar   81  TRP81       0.0810
     47  CE3        2.2640   72.8550   -7.6490 C.ar   81  TRP81       0.0012
     48  CZ2        4.1200   74.8980   -8.3390 C.ar   81  TRP81       0.0191
     49  CZ3        2.0190   74.1990   -7.3480 C.ar   81  TRP81       0.0001
     50  CH2        2.9460   75.2020   -7.6940 C.ar   81  TRP81       0.0015
     51  N          3.9580   67.0310   -8.5630 N.am   82  SER82      -0.1952
     52  CA         3.8310   65.6140   -8.2490 C.3    82  SER82       0.1924
     53  C          2.4810   64.9170   -8.3850 C.2    82  SER82       0.2314
     54  O          1.4170   65.5090   -8.1770 O.2    82  SER82      -0.2863
     55  CB         4.4090   65.3570   -6.8610 C.3    82  SER82       0.2116
     56  OG         5.7900   65.6650   -6.8590 O.3    82  SER82      -0.2180
     57  N         -2.1910   69.0360   -2.4860 N.3   145  ARG145     -0.1231
     58  CA        -1.4720   68.4120   -3.5930 C.3   145  ARG145      0.1694
     59  C         -0.9760   66.9840   -3.4020 C.2   145  ARG145      0.2592
     60  O         -1.1290   66.3780   -2.3380 O.2   145  ARG145     -0.2718
     61  CB        -0.2730   69.2840   -3.9560 C.3   145  ARG145      0.0321
     62  CG         0.7000   69.4620   -2.7990 C.3   145  ARG145      0.0489
     63  CD         1.9150   70.2730   -3.2080 C.3   145  ARG145      0.2205
     64  NE         2.7730   70.5600   -2.0620 N.pl3 145  ARG145     -0.0865
     65  CZ         2.4710   71.4250   -1.0980 C.cat 145  ARG145      0.5346
     66  NH1        1.3310   72.1020   -1.1370 N.pl3 145  ARG145      0.1354
     67  NH2        3.2990   71.6000   -0.0800 N.pl3 145  ARG145      0.1354
     68  N         -0.3710   66.4710   -4.4740 N.am  146  ASP146     -0.1974
     69  CA         0.2160   65.1340   -4.5290 C.3   146  ASP146      0.1709
     70  C         -0.7540   63.9640   -4.4150 C.2   146  ASP146      0.2293
     71  O         -0.7220   63.2150   -3.4370 O.2   146  ASP146     -0.2864
     72  CB         1.2970   64.9970   -3.4570 C.3   146  ASP146      0.1436
     73  CG         2.2450   66.1740   -3.4410 C.2   146  ASP146      0.3671
     74  OD1        2.3670   66.8570   -4.4760 O.co2 146  ASP146     -0.2456
     75  OD2        2.8770   66.4110   -2.3940 O.co2 146  ASP146     -0.2456
     76  N          2.9480   66.0240    2.4070 N.3   200  GLU200     -0.1231
     77  CA         3.3370   65.9120    1.0110 C.3   200  GLU200      0.1699
     78  C          3.5010   64.4730    0.5450 C.2   200  GLU200      0.2592
     79  O          3.9430   63.6100    1.3050 O.2   200  GLU200     -0.2718
     80  CB         4.6320   66.6770    0.7770 C.3   200  GLU200      0.0402
     81  CG         4.4880   68.1680    0.9840 C.3   200  GLU200      0.1161
     82  CD         5.7570   68.9230    0.6510 C.2   200  GLU200      0.3649
     83  OE1        5.6550   70.0300    0.0840 O.co2 200  GLU200     -0.2457
     84  OE2        6.8560   68.4170    0.9610 O.co2 200  GLU200     -0.2457
     85  N          3.1300   64.2270   -0.7100 N.am  201  CYS201     -0.1970
     86  CA         3.2360   62.9110   -1.3350 C.3   201  CYS201      0.1712
     87  C          2.7570   61.7390   -0.4830 C.2   201  CYS201      0.2296
     88  O          3.5140   60.8060   -0.2080 O.2   201  CYS201     -0.2864
     89  CB         4.6780   62.6630   -1.7660 C.3   201  CYS201      0.0983
     90  SG         5.3160   63.9380   -2.8660 S.3   201  CYS201     -0.0798
     91  N         13.3100   61.8450    0.6330 N.3   273  TYR273     -0.1241
     92  CA        12.0490   62.5750    0.6710 C.3   273  TYR273      0.1605
     93  C         11.1440   62.3290   -0.5390 C.2   273  TYR273      0.2264
     94  O         11.6000   61.8600   -1.5880 O.2   273  TYR273     -0.2867
     95  CB        12.3280   64.0840    0.8130 C.3   273  TYR273      0.0534
     96  CG        11.1370   64.8620    1.3270 C.ar  273  TYR273     -0.0201
     97  CD1       10.6630   64.6630    2.6300 C.ar  273  TYR273     -0.0009
     98  CD2       10.4430   65.7470    0.4980 C.ar  273  TYR273     -0.0009
     99  CE1        9.5210   65.3210    3.0940 C.ar  273  TYR273      0.0417
    100  CE2        9.2990   66.4090    0.9500 C.ar  273  TYR273      0.0417
    101  CZ         8.8420   66.1870    2.2490 C.ar  273  TYR273      0.1957
    102  OH         7.6930   66.8030    2.6950 O.3   273  TYR273     -0.2866
    103  N         13.4470   60.7650   -3.6730 N.3   291  TRP291     -0.1241
    104  CA        14.3150   61.8500   -4.0850 C.3   291  TRP291      0.1605
    105  C         15.3650   62.0620   -2.9980 C.2   291  TRP291      0.2264
    106  O         15.0510   62.0750   -1.8090 O.2   291  TRP291     -0.2867
    107  CB        13.4770   63.1210   -4.2900 C.3   291  TRP291      0.0550
    108  CG        14.2670   64.3990   -4.4040 C.ar  291  TRP291      0.0003
    109  CD1       15.4260   64.5910   -5.1040 C.ar  291  TRP291      0.0946
    110  CD2       13.9420   65.6660   -3.8130 C.ar  291  TRP291      0.0152
    111  NE1       15.8480   65.8960   -4.9800 N.ar  291  TRP291     -0.2442
    112  CE2       14.9590   66.5790   -4.1950 C.ar  291  TRP291      0.0810
    113  CE3       12.8950   66.1200   -2.9980 C.ar  291  TRP291      0.0012
    114  CZ2       14.9600   67.9230   -3.7880 C.ar  291  TRP291      0.0191
    115  CZ3       12.8930   67.4590   -2.5910 C.ar  291  TRP291      0.0001
    116  CH2       13.9240   68.3430   -2.9890 C.ar  291  TRP291      0.0015
@<TRIPOS>BOND
     1    19    20    2
     2    19    18    1
     3    18    17    1
     4    18    21    1
     5    37    38    1
     6    25    23   am
     7    40    39    2
     8    38    39    1
     9    38    41    1
    10    23    24    2
    11    23    22    1
    12    39    51   am
    13    21    22    1
    14    43    45   ar
    15    43    42   ar
    16    45    46   ar
    17    29    28    2
    18    28    27    1
    19    42    41    1
    20    42    44   ar
    21    12    11    2
    22    46    48   ar
    23    46    44   ar
    24    51    52    1
    25     1     2    1
    26    27    26    1
    27    27    30    1
    28    53    52    1
    29    53    54    2
    30    48    50   ar
    31    44    47   ar
    32    52    55    1
    33     7     6    2
    34    50    49   ar
    35    47    49   ar
    36     4     3    2
    37    11    10    1
    38    34    32   ar
    39    34    36   ar
    40    32    31   ar
    41    36    35   ar
    42     2     3    1
    43     2     5    1
    44     6     8   am
    45     6     5    1
    46    31    30    1
    47    31    33   ar
    48     3     9   am
    49    35    33   ar
    50    55    56    1
    51     9    10    1
    52    10    13    1
    53    13    14    1
    54   109   111   ar
    55   109   108   ar
    56    14    15   ar
    57    14    16   ar
    58   111   112   ar
    59    69    68    1
    60    69    70    1
    61    69    72    1
    62    74    73   ar
    63    68    59   am
    64    70    71    2
    65   108   107    1
    66   108   110   ar
    67   107   104    1
    68   112   110   ar
    69   112   114   ar
    70   104   103    1
    71   104   105    1
    72    61    58    1
    73    61    62    1
    74   110   113   ar
    75   114   116   ar
    76    58    59    1
    77    58    57    1
    78    72    73    1
    79    73    75   ar
    80    59    60    2
    81    63    62    1
    82    63    64    1
    83   113   115   ar
    84   105   106    2
    85   116   115   ar
    86    90    89    1
    87    64    65    2
    88    89    86    1
    89    94    93    2
    90    86    85    1
    91    86    87    1
    92    66    65    1
    93    65    67    1
    94    85    78   am
    95    93    92    1
    96    87    88    2
    97    83    82   ar
    98    98   100   ar
    99    98    96   ar
   100    78    77    1
   101    78    79    2
   102    91    92    1
   103    82    84   ar
   104    82    81    1
   105    92    95    1
   106    80    81    1
   107    80    77    1
   108    95    96    1
   109   100   101   ar
   110    77    76    1
   111    96    97   ar
   112   101   102    1
   113   101    99   ar
   114    97    99   ar
