@<TRIPOS>MOLECULE
tmp/2aduA00.pdb
 118 112 0 0 0
SMALL
GASTEIGER

@<TRIPOS>ATOM
      1  N         23.5530   31.2880    9.7340 N.3    96  PHE96      -0.1241
      2  CA        23.6240   32.0520   10.9720 C.3    96  PHE96       0.1605
      3  C         25.0430   31.9970   11.5400 C.2    96  PHE96       0.2264
      4  O         25.8450   31.1550   11.1340 O.2    96  PHE96      -0.2867
      5  CB        22.5790   31.5540   11.9930 C.3    96  PHE96       0.0534
      6  CG        22.6800   30.0860   12.3410 C.ar   96  PHE96      -0.0203
      7  CD1       23.6210   29.6330   13.2620 C.ar   96  PHE96      -0.0042
      8  CD2       21.7860   29.1670   11.7910 C.ar   96  PHE96      -0.0042
      9  CE1       23.6680   28.2830   13.6380 C.ar   96  PHE96      -0.0003
     10  CE2       21.8270   27.8140   12.1620 C.ar   96  PHE96      -0.0003
     11  CZ        22.7700   27.3730   13.0890 C.ar   96  PHE96      -0.0000
     12  N         23.6950   31.1790   21.4500 N.3   108  HIS108     -0.1241
     13  CA        23.7280   32.5420   20.9640 C.3   108  HIS108      0.1621
     14  C         24.9290   33.4040   21.2970 C.2   108  HIS108      0.2264
     15  O         24.8300   34.6370   21.3150 O.2   108  HIS108     -0.2867
     16  CB        22.4490   33.2390   21.4020 C.3   108  HIS108      0.0745
     17  CG        21.2160   32.6140   20.8260 C.ar  108  HIS108      0.0817
     18  ND1       19.9430   33.0640   21.1150 N.ar  108  HIS108     -0.2268
     19  CD2       21.0640   31.5930   19.9490 C.ar  108  HIS108      0.1154
     20  CE1       19.0620   32.3500   20.4370 C.ar  108  HIS108      0.1986
     21  NE2       19.7150   31.4510   19.7220 N.ar  108  HIS108     -0.2212
     22  N         27.6540   25.6260   17.2890 N.3   128  ASP128     -0.1239
     23  CA        26.3610   25.6040   16.6140 C.3   128  ASP128      0.1674
     24  C         26.4410   26.4920   15.3740 C.2   128  ASP128      0.2266
     25  O         26.4980   27.7230   15.4790 O.2   128  ASP128     -0.2867
     26  CB        25.2990   26.1310   17.5800 C.3   128  ASP128      0.1410
     27  CG        23.8740   25.8810   17.1030 C.2   128  ASP128      0.3668
     28  OD1       23.6570   25.3960   15.9740 O.co2 128  ASP128     -0.2456
     29  OD2       22.9620   26.1920   17.8830 O.co2 128  ASP128     -0.2456
     30  N         20.5610   23.3330   10.3700 N.3   139  ASP139     -0.1239
     31  CA        20.9280   23.7470   11.7320 C.3   139  ASP139      0.1674
     32  C         21.3740   22.4750   12.4400 C.2   139  ASP139      0.2266
     33  O         20.5760   21.5610   12.6690 O.2   139  ASP139     -0.2867
     34  CB        19.7130   24.3760   12.4580 C.3   139  ASP139      0.1410
     35  CG        20.0310   24.8930   13.8740 C.2   139  ASP139      0.3668
     36  OD1       21.2120   24.8870   14.3200 O.co2 139  ASP139     -0.2456
     37  OD2       19.0630   25.3330   14.5600 O.co2 139  ASP139     -0.2456
     38  N         13.0000   23.5190   17.0260 N.3   208  HIS208     -0.1241
     39  CA        12.1630   24.4180   16.2500 C.3   208  HIS208      0.1621
     40  C         11.9780   24.0280   14.7950 C.2   208  HIS208      0.2264
     41  O         12.8240   23.3570   14.1970 O.2   208  HIS208     -0.2867
     42  CB        12.7660   25.8160   16.3300 C.3   208  HIS208      0.0745
     43  CG        14.2220   25.8550   15.9900 C.ar  208  HIS208      0.0817
     44  ND1       14.6830   25.9750   14.6960 N.ar  208  HIS208     -0.2268
     45  CD2       15.3220   25.7430   16.7730 C.ar  208  HIS208      0.1154
     46  CE1       16.0050   25.9370   14.6980 C.ar  208  HIS208      0.1986
     47  NE2       16.4170   25.7950   15.9450 N.ar  208  HIS208     -0.2212
     48  N         15.2280   30.5390   10.1730 N.3   215  ILE215     -0.1231
     49  CA        15.7370   29.5830   11.1540 C.3   215  ILE215      0.1692
     50  C         14.6850   29.0510   12.1470 C.2   215  ILE215      0.2592
     51  O         14.7020   27.8660   12.4840 O.2   215  ILE215     -0.2718
     52  CB        16.9470   30.1870   11.9070 C.3   215  ILE215      0.0266
     53  CG1       17.5920   29.1190   12.7920 C.3   215  ILE215      0.0019
     54  CG2       16.5140   31.4040   12.7250 C.3   215  ILE215      0.0020
     55  CD1       18.1160   27.9180   12.0230 C.3   215  ILE215      0.0001
     56  N         13.7800   29.9130   12.6080 N.am  216  HIS216     -0.1976
     57  CA        12.7120   29.5030   13.5210 C.3   216  HIS216      0.1656
     58  C         11.3610   29.8160   12.8670 C.2   216  HIS216      0.2291
     59  O         10.8040   30.9050   13.0510 O.2   216  HIS216     -0.2864
     60  CB        12.8110   30.2330   14.8730 C.3   216  HIS216      0.0771
     61  CG        13.9400   29.7640   15.7420 C.ar  216  HIS216      0.0820
     62  ND1       13.8830   29.8070   17.1170 N.ar  216  HIS216     -0.2267
     63  CD2       15.1660   29.2690   15.4320 C.ar  216  HIS216      0.1154
     64  CE1       15.0230   29.3580   17.6190 C.ar  216  HIS216      0.1986
     65  NE2       15.8180   29.0240   16.6160 N.ar  216  HIS216     -0.2212
     66  N         16.9170   19.9150   18.8630 N.3   241  GLU241     -0.1245
     67  CA        18.0550   20.2270   19.7260 C.3   241  GLU241      0.1567
     68  C         17.6780   20.2110   21.1930 C.2   241  GLU241      0.2260
     69  O         16.6260   20.7130   21.5810 O.2   241  GLU241     -0.2867
     70  CB        18.6680   21.5910   19.3610 C.3   241  GLU241      0.0388
     71  CG        17.7510   22.8120   19.4910 C.3   241  GLU241      0.1160
     72  CD        18.4380   24.1180   19.0640 C.2   241  GLU241      0.3649
     73  OE1       19.5180   24.4400   19.6090 O.co2 241  GLU241     -0.2457
     74  OE2       17.9010   24.8270   18.1760 O.co2 241  GLU241     -0.2457
     75  N         24.4810   38.4070   18.1140 N.3   259  HIS259     -0.1241
     76  CA        23.5260   37.8760   17.1450 C.3   259  HIS259      0.1621
     77  C         22.3780   38.8390   16.9020 C.2   259  HIS259      0.2264
     78  O         21.8270   39.4120   17.8420 O.2   259  HIS259     -0.2867
     79  CB        22.9410   36.5510   17.6330 C.3   259  HIS259      0.0745
     80  CG        23.9010   35.4090   17.5830 C.ar  259  HIS259      0.0817
     81  ND1       25.1620   35.4740   18.1330 N.ar  259  HIS259     -0.2268
     82  CD2       23.7800   34.1660   17.0640 C.ar  259  HIS259      0.1154
     83  CE1       25.7770   34.3190   17.9580 C.ar  259  HIS259      0.1986
     84  NE2       24.9600   33.5090   17.3120 N.ar  259  HIS259     -0.2212
     85  N         18.9460   39.5590   13.9070 N.3   261  MET261     -0.1245
     86  CA        18.1860   39.0190   12.7980 C.3   261  MET261      0.1570
     87  C         16.9790   39.8850   12.4850 C.2   261  MET261      0.2261
     88  O         16.2820   40.3500   13.3840 O.2   261  MET261     -0.2867
     89  CB        17.7320   37.5900   13.0910 C.3   261  MET261      0.0387
     90  CG        17.1160   36.9210   11.8740 C.3   261  MET261      0.0595
     91  SD        16.9540   35.1500   12.0810 S.3   261  MET261     -0.1393
     92  CE        15.6240   35.0980   13.2860 C.3   261  MET261      0.0692
     93  N         19.9660   35.2620   10.0940 N.3   291  ALA291     -0.1245
     94  CA        20.6490   35.8910   11.2180 C.3   291  ALA291      0.1562
     95  C         22.0860   36.2420   10.8460 C.2   291  ALA291      0.2260
     96  O         22.6510   35.6730    9.9210 O.2   291  ALA291     -0.2867
     97  CB        20.6330   34.9670   12.4200 C.3   291  ALA291      0.0290
     98  N         19.6150   38.9770   19.6050 N.3   321  TYR321     -0.1241
     99  CA        19.5590   37.6500   20.2180 C.3   321  TYR321      0.1605
    100  C         20.8000   37.4710   21.0730 C.2   321  TYR321      0.2264
    101  O         21.7620   36.8250   20.6690 O.2   321  TYR321     -0.2867
    102  CB        19.4830   36.5540   19.1480 C.3   321  TYR321      0.0534
    103  CG        18.1540   36.5300   18.4300 C.ar  321  TYR321     -0.0201
    104  CD1       17.0690   35.8150   18.9400 C.ar  321  TYR321     -0.0009
    105  CD2       17.9940   37.1850   17.2020 C.ar  321  TYR321     -0.0009
    106  CE1       15.8500   35.7560   18.2440 C.ar  321  TYR321      0.0417
    107  CE2       16.7920   37.1280   16.5050 C.ar  321  TYR321      0.0417
    108  CZ        15.7260   36.4180   17.0310 C.ar  321  TYR321      0.1957
    109  OH        14.5250   36.4020   16.3520 O.3   321  TYR321     -0.2866
    110  N         22.3820   19.0370   18.2280 N.3   336  GLU336     -0.1245
    111  CA        21.2900   19.4070   17.3340 C.3   336  GLU336      0.1567
    112  C         21.4470   18.8330   15.9310 C.2   336  GLU336      0.2260
    113  O         22.5520   18.7770   15.3800 O.2   336  GLU336     -0.2867
    114  CB        21.1930   20.9390   17.2710 C.3   336  GLU336      0.0388
    115  CG        20.1370   21.5280   16.3220 C.3   336  GLU336      0.1160
    116  CD        20.0640   23.0540   16.4080 C.2   336  GLU336      0.3649
    117  OE1       21.1410   23.7020   16.4630 O.co2 336  GLU336     -0.2457
    118  OE2       18.9420   23.6090   16.4120 O.co2 336  GLU336     -0.2457
@<TRIPOS>BOND
     1     1     2    1
     2    96    95    2
     3    93    94    1
     4    48    49    1
     5    30    31    1
     6    95    94    1
     7     2     3    1
     8     2     5    1
     9     4     3    2
    10    49    52    1
    11    49    50    1
    12    94    97    1
    13    31    32    1
    14    31    34    1
    15     8    10   ar
    16     8     6   ar
    17    90    91    1
    18    90    89    1
    19    52    54    1
    20    52    53    1
    21     5     6    1
    22    55    53    1
    23    91    92    1
    24    50    51    2
    25    50    56   am
    26    10    11   ar
    27     6     7   ar
    28    32    33    2
    29    34    35    1
    30    87    86    1
    31    87    88    2
    32    56    57    1
    33    86    89    1
    34    86    85    1
    35    58    59    2
    36    58    57    1
    37    11     9   ar
    38     7     9   ar
    39    57    60    1
    40    35    36   ar
    41    35    37   ar
    42    41    40    2
    43    44    46   ar
    44    44    43   ar
    45    46    47   ar
    46    40    39    1
    47    60    61    1
    48    24    25    2
    49    24    23    1
    50   113   112    2
    51    63    61   ar
    52    63    65   ar
    53    61    62   ar
    54   112   111    1
    55    47    45   ar
    56    28    27   ar
    57    43    42    1
    58    43    45   ar
    59    39    42    1
    60    39    38    1
    61   115   116    1
    62   115   114    1
    63   109   108    1
    64   116   118   ar
    65   116   117   ar
    66   107   108   ar
    67   107   105   ar
    68    23    22    1
    69    23    26    1
    70    65    64   ar
    71    77    76    1
    72    77    78    2
    73   108   106   ar
    74    82    84   ar
    75    82    80   ar
    76    27    26    1
    77    27    29   ar
    78    62    64   ar
    79    76    79    1
    80    76    75    1
    81   105   103   ar
    82   114   111    1
    83    84    83   ar
    84   111   110    1
    85    80    79    1
    86    80    81   ar
    87    83    81   ar
    88    74    72   ar
    89   106   104   ar
    90   103   104   ar
    91   103   102    1
    92    66    67    1
    93    72    71    1
    94    72    73   ar
    95   102    99    1
    96    70    71    1
    97    70    67    1
    98    98    99    1
    99    21    19   ar
   100    21    20   ar
   101    67    68    1
   102    19    17   ar
   103    99   100    1
   104    20    18   ar
   105   101   100    2
   106    17    18   ar
   107    17    16    1
   108    13    14    1
   109    13    16    1
   110    13    12    1
   111    68    69    2
   112    14    15    2
