@<TRIPOS>MOLECULE
tmp/2ae2A01.pdb
 140 130 0 0 0
SMALL
GASTEIGER

@<TRIPOS>ATOM
      1  N          4.6750   29.2580  155.4970 N.3    97  VAL97      -0.1245
      2  CA         4.9900   30.6730  155.5920 C.3    97  VAL97       0.1561
      3  C          4.1980   31.2970  156.7430 C.2    97  VAL97       0.2260
      4  O          3.0850   30.8710  157.0520 O.2    97  VAL97      -0.2867
      5  CB         4.6720   31.4110  154.2650 C.3    97  VAL97       0.0252
      6  CG1        3.1750   31.4580  154.0360 C.3    97  VAL97       0.0019
      7  CG2        5.2600   32.8090  154.3000 C.3    97  VAL97       0.0019
      8  N          3.3440   35.1620  157.8170 N.3    99  TYR99      -0.1241
      9  CA         3.4540   36.5340  157.3480 C.3    99  TYR99       0.1605
     10  C          3.5540   37.6190  158.3900 C.2    99  TYR99       0.2264
     11  O          2.6060   38.3630  158.6080 O.2    99  TYR99      -0.2867
     12  CB         2.2930   36.8490  156.4100 C.3    99  TYR99       0.0534
     13  CG         2.2680   35.9760  155.1780 C.ar   99  TYR99      -0.0201
     14  CD1        3.3130   36.0100  154.2520 C.ar   99  TYR99      -0.0009
     15  CD2        1.1880   35.1360  154.9210 C.ar   99  TYR99      -0.0009
     16  CE1        3.2770   35.2270  153.0940 C.ar   99  TYR99       0.0417
     17  CE2        1.1420   34.3490  153.7670 C.ar   99  TYR99       0.0417
     18  CZ         2.1880   34.4000  152.8580 C.ar   99  TYR99       0.1957
     19  OH         2.1370   33.6250  151.7180 O.3    99  TYR99      -0.2866
     20  N         12.6260   29.7300  146.2790 N.3   145  SER145     -0.1202
     21  CA        11.6720   30.7940  146.0130 C.3   145  SER145      0.2020
     22  C         12.3980   32.0410  145.5570 C.2   145  SER145      0.2619
     23  O         13.5770   32.2160  145.8410 O.2   145  SER145     -0.2717
     24  CB        10.8820   31.1310  147.2760 C.3   145  SER145      0.2103
     25  OG        10.1110   32.3020  147.0740 O.3   145  SER145     -0.2182
     26  N         11.6970   32.9090  144.8450 N.am  146  VAL146     -0.1965
     27  CA        12.3170   34.1460  144.4120 C.3   146  VAL146      0.1727
     28  C         12.5990   34.9300  145.6900 C.2   146  VAL146      0.2616
     29  O         13.5190   35.7460  145.7390 O.2   146  VAL146     -0.2715
     30  CB        11.3790   34.9750  143.5040 C.3   146  VAL146      0.0290
     31  CG1       11.1670   34.2490  142.1760 C.3   146  VAL146      0.0023
     32  CG2       10.0470   35.2220  144.2070 C.3   146  VAL146      0.0023
     33  N         11.8080   34.6570  146.7280 N.am  147  SER147     -0.1950
     34  CA        11.9510   35.3300  148.0190 C.3   147  SER147      0.1924
     35  C         13.2500   35.0090  148.7450 C.2   147  SER147      0.2314
     36  O         13.6000   35.6830  149.7100 O.2   147  SER147     -0.2863
     37  CB        10.7820   34.9750  148.9360 C.3   147  SER147      0.2116
     38  OG         9.6490   35.7420  148.5960 O.3   147  SER147     -0.2180
     39  N         10.5820   40.5550  149.7520 N.3   152  VAL152     -0.1245
     40  CA         9.1420   40.4360  149.5400 C.3   152  VAL152      0.1561
     41  C          8.4850   40.7060  150.8970 C.2   152  VAL152      0.2260
     42  O          8.9420   40.1920  151.9180 O.2   152  VAL152     -0.2867
     43  CB         8.7540   39.0120  149.0640 C.3   152  VAL152      0.0252
     44  CG1        7.2370   38.9020  148.9030 C.3   152  VAL152      0.0019
     45  CG2        9.4530   38.6980  147.7370 C.3   152  VAL152      0.0019
     46  N          8.1740   38.3730  154.2440 N.3   155  GLU155     -0.1245
     47  CA         8.9400   37.1640  153.9600 C.3   155  GLU155      0.1567
     48  C         10.4220   37.2920  154.2580 C.2   155  GLU155      0.2260
     49  O         11.2570   36.7000  153.5790 O.2   155  GLU155     -0.2867
     50  CB         8.7090   36.7450  152.5020 C.3   155  GLU155      0.0388
     51  CG         7.1930   36.5790  152.1940 C.3   155  GLU155      0.1160
     52  CD         6.8960   35.9650  150.8390 C.2   155  GLU155      0.3649
     53  OE1        7.8430   35.5840  150.1240 O.co2 155  GLU155     -0.2457
     54  OE2        5.7000   35.8650  150.4930 O.co2 155  GLU155     -0.2457
     55  N         11.1020   33.9400  156.1150 N.3   158  TYR158     -0.1241
     56  CA        10.8120   32.9040  155.1290 C.3   158  TYR158      0.1605
     57  C         11.9160   32.9390  154.0760 C.2   158  TYR158      0.2264
     58  O         12.4500   31.9080  153.6810 O.2   158  TYR158     -0.2867
     59  CB         9.4560   33.1840  154.4810 C.3   158  TYR158      0.0534
     60  CG         9.1510   32.3490  153.2650 C.ar  158  TYR158     -0.0201
     61  CD1        9.3870   32.8440  151.9840 C.ar  158  TYR158     -0.0009
     62  CD2        8.5870   31.0790  153.3890 C.ar  158  TYR158     -0.0009
     63  CE1        9.0630   32.0990  150.8510 C.ar  158  TYR158      0.0417
     64  CE2        8.2580   30.3250  152.2630 C.ar  158  TYR158      0.0417
     65  CZ         8.4980   30.8460  150.9950 C.ar  158  TYR158      0.1957
     66  OH         8.1600   30.1290  149.8750 O.3   158  TYR158     -0.2866
     67  N          8.0540   31.4300  141.2100 N.3   189  GLY189     -0.1210
     68  CA         7.6660   32.8170  141.3580 C.3   189  GLY189      0.1956
     69  C          6.3240   32.7190  142.0480 C.2   189  GLY189      0.2612
     70  O          6.2560   32.3130  143.2070 O.2   189  GLY189     -0.2717
     71  N          5.2500   33.0720  141.3580 N.am  190  VAL190     -0.1965
     72  CA         3.9310   32.9620  141.9590 C.3   190  VAL190      0.1727
     73  C          3.1910   31.8300  141.2580 C.2   190  VAL190      0.2616
     74  O          2.8780   31.9220  140.0720 O.2   190  VAL190     -0.2715
     75  CB         3.1420   34.2790  141.8310 C.3   190  VAL190      0.0290
     76  CG1        1.7920   34.1470  142.5050 C.3   190  VAL190      0.0023
     77  CG2        3.9250   35.4050  142.4690 C.3   190  VAL190      0.0023
     78  N          2.9390   30.7530  142.0000 N.am  191  ILE191     -0.1977
     79  CA         2.2490   29.5730  141.4800 C.3   191  ILE191      0.1596
     80  C          0.9170   29.3970  142.2060 C.2   191  ILE191      0.2287
     81  O          0.8540   29.4990  143.4350 O.2   191  ILE191     -0.2864
     82  CB         3.1100   28.2990  141.6880 C.3   191  ILE191      0.0276
     83  CG1        4.5270   28.5290  141.1540 C.3   191  ILE191      0.0022
     84  CG2        2.4610   27.1060  141.0100 C.3   191  ILE191      0.0022
     85  CD1        4.6030   28.7500  139.6530 C.3   191  ILE191      0.0001
     86  N         -1.5750   27.4190  149.2360 N.3   195  LEU195     -0.1231
     87  CA        -0.8350   28.3910  150.0210 C.3   195  LEU195      0.1693
     88  C         -1.1800   29.7720  149.4880 C.2   195  LEU195      0.2591
     89  O         -1.4130   30.7040  150.2580 O.2   195  LEU195     -0.2718
     90  CB         0.6650   28.1430  149.8860 C.3   195  LEU195      0.0284
     91  CG         1.5890   29.0700  150.6730 C.3   195  LEU195      0.0019
     92  CD1        2.7770   28.2750  151.1950 C.3   195  LEU195      0.0001
     93  CD2        2.0610   30.2040  149.7760 C.3   195  LEU195      0.0001
     94  N         -1.2240   29.9020  148.1660 N.am  196  VAL196     -0.1980
     95  CA        -1.5550   31.1790  147.5590 C.3   196  VAL196      0.1595
     96  C         -3.0280   31.5440  147.7990 C.2   196  VAL196      0.2287
     97  O         -3.3400   32.7080  148.0580 O.2   196  VAL196     -0.2864
     98  CB        -1.2430   31.1730  146.0440 C.3   196  VAL196      0.0276
     99  CG1       -1.9440   32.3300  145.3600 C.3   196  VAL196      0.0022
    100  CG2        0.2580   31.2780  145.8360 C.3   196  VAL196      0.0022
    101  N         -3.4520   32.8620  151.2550 N.3   199  THR199     -0.1218
    102  CA        -2.7930   34.1610  151.2800 C.3   199  THR199      0.1862
    103  C         -3.6750   35.3190  150.8290 C.2   199  THR199      0.2287
    104  O         -3.7660   36.3340  151.5190 O.2   199  THR199     -0.2866
    105  CB        -1.5260   34.1600  150.3930 C.3   199  THR199      0.1770
    106  OG1       -0.5770   33.2160  150.9060 O.3   199  THR199     -0.2211
    107  CG2       -0.8920   35.5480  150.3650 C.3   199  THR199      0.0375
    108  N         -2.6280   41.3200  151.6060 N.3   205  GLN205     -0.1245
    109  CA        -1.7770   40.3200  150.9920 C.3   205  GLN205      0.1566
    110  C         -2.2340   40.0670  149.5600 C.2   205  GLN205      0.2260
    111  O         -1.4210   39.7660  148.6830 O.2   205  GLN205     -0.2867
    112  CB        -1.8030   39.0300  151.8160 C.3   205  GLN205      0.0367
    113  CG        -0.7820   39.0360  152.9860 C.3   205  GLN205      0.0905
    114  CD         0.6610   39.1860  152.5030 C.2   205  GLN205      0.2608
    115  OE1        1.1080   40.2860  152.1640 O.2   205  GLN205     -0.2717
    116  NE2        1.3950   38.0730  152.4700 N.am  205  GLN205     -0.0878
    117  N         -0.5900   42.6580  147.6230 N.3   208  ASN208     -0.1225
    118  CA         0.8440   42.4230  147.5130 C.3   208  ASN208      0.1785
    119  C          1.1080   41.3460  146.4660 C.2   208  ASN208      0.2597
    120  O          2.0930   41.4080  145.7340 O.2   208  ASN208     -0.2718
    121  CB         1.4210   41.9730  148.8540 C.3   208  ASN208      0.1169
    122  CG         1.7030   43.1330  149.7780 C.2   208  ASN208      0.2627
    123  OD1        1.8660   44.2690  149.3330 O.2   208  ASN208     -0.2716
    124  ND2        1.7630   42.8550  151.0770 N.am  208  ASN208     -0.0877
    125  N          0.2310   40.3520  146.4010 N.am  209  LEU209     -0.1980
    126  CA         0.3990   39.2900  145.4240 C.3   209  LEU209      0.1596
    127  C          0.1880   39.8290  144.0130 C.2   209  LEU209      0.2287
    128  O          0.8750   39.4240  143.0780 O.2   209  LEU209     -0.2864
    129  CB        -0.5830   38.1520  145.6810 C.3   209  LEU209      0.0297
    130  CG        -0.1310   36.8960  144.9410 C.3   209  LEU209      0.0022
    131  CD1        0.9200   36.1890  145.7750 C.3   209  LEU209      0.0001
    132  CD2       -1.3100   35.9900  144.6640 C.3   209  LEU209      0.0001
    133  N          3.2640   41.3300  142.5060 N.3   212  LEU212     -0.1245
    134  CA         4.2170   40.3700  141.9770 C.3   212  LEU212      0.1561
    135  C          3.8060   39.8970  140.5920 C.2   212  LEU212      0.2260
    136  O          4.6400   39.8100  139.6940 O.2   212  LEU212     -0.2867
    137  CB         4.3230   39.1590  142.9070 C.3   212  LEU212      0.0270
    138  CG         4.9000   39.3780  144.3060 C.3   212  LEU212      0.0019
    139  CD1        4.8720   38.0640  145.0830 C.3   212  LEU212      0.0001
    140  CD2        6.3230   39.9020  144.1910 C.3   212  LEU212      0.0001
@<TRIPOS>BOND
     1    85    83    1
     2   136   135    2
     3    74    73    2
     4   135   134    1
     5    84    82    1
     6    83    82    1
     7    67    68    1
     8    73    72    1
     9    73    78   am
    10    71    72    1
    11    71    69   am
    12    68    69    1
    13    79    82    1
    14    79    78    1
    15    79    80    1
    16    75    72    1
    17    75    77    1
    18    75    76    1
    19   134   133    1
    20   134   137    1
    21    69    70    2
    22    31    30    1
    23    80    81    2
    24   137   138    1
    25   128   127    2
    26    30    32    1
    27    30    27    1
    28   127   126    1
    29   140   138    1
    30   138   139    1
    31    27    26    1
    32    27    28    1
    33   132   130    1
    34    26    22   am
    35   130   129    1
    36   130   131    1
    37    99    98    1
    38   126   129    1
    39   126   125    1
    40    22    23    2
    41    22    21    1
    42    28    29    2
    43    28    33   am
    44   120   119    2
    45   100    98    1
    46    21    20    1
    47    21    24    1
    48    98    95    1
    49   125   119   am
    50   119   118    1
    51    33    34    1
    52    25    24    1
    53   118   117    1
    54   118   121    1
    55    95    96    1
    56    95    94    1
    57    45    43    1
    58    96    97    2
    59    34    35    1
    60    34    37    1
    61    94    88   am
    62    38    37    1
    63   111   110    2
    64    35    36    2
    65   121   122    1
    66    44    43    1
    67    43    40    1
    68    86    87    1
    69   123   122    2
    70    88    87    1
    71    88    89    2
    72    40    39    1
    73    40    41    1
    74   110   109    1
    75    93    91    1
    76   122   124   am
    77    66    65    1
    78    90    87    1
    79    90    91    1
    80    53    52   ar
    81   107   105    1
    82   105   106    1
    83   105   102    1
    84    54    52   ar
    85    91    92    1
    86   103   102    1
    87   103   104    2
    88    52    51    1
    89    63    65   ar
    90    63    61   ar
    91    41    42    2
    92   109   108    1
    93   109   112    1
    94    65    64   ar
    95   101   102    1
    96    19    18    1
    97   112   113    1
    98    61    60   ar
    99   115   114    2
   100    51    50    1
   101    64    62   ar
   102   116   114   am
   103    50    47    1
   104   114   113    1
   105    18    16   ar
   106    18    17   ar
   107    16    14   ar
   108    60    62   ar
   109    60    59    1
   110    49    48    2
   111    58    57    2
   112    17    15   ar
   113    47    46    1
   114    47    48    1
   115     6     5    1
   116    57    56    1
   117    14    13   ar
   118     5     7    1
   119     5     2    1
   120    59    56    1
   121    15    13   ar
   122    56    55    1
   123    13    12    1
   124     1     2    1
   125     2     3    1
   126    12     9    1
   127     3     4    2
   128     9     8    1
   129     9    10    1
   130    10    11    2
