@<TRIPOS>MOLECULE
tmp/2ae7C00.pdb
 132 132 0 0 0
SMALL
GASTEIGER

@<TRIPOS>ATOM
      1  N         32.2620   10.2960  105.1690 N.3   149  LYS149     -0.1231
      2  CA        31.5950    9.0720  105.6070 C.3   149  LYS149      0.1693
      3  C         32.2970    8.4040  106.7770 C.2   149  LYS149      0.2592
      4  O         31.7080    7.5700  107.4620 O.2   149  LYS149     -0.2718
      5  CB        31.4310    8.0880  104.4370 C.3   149  LYS149      0.0285
      6  CG        32.5100    7.0410  104.2800 C.3   149  LYS149      0.0035
      7  CD        32.1550    6.1400  103.0920 C.3   149  LYS149      0.0206
      8  CE        33.1750    5.0420  102.8720 C.3   149  LYS149      0.1093
      9  NZ        32.9620    4.3550  101.5590 N.3   149  LYS149     -0.1314
     10  N         33.5510    8.7720  107.0120 N.am  150  PHE150     -0.1976
     11  CA        34.3040    8.2190  108.1330 C.3   150  PHE150      0.1639
     12  C         34.5190    9.2940  109.2060 C.2   150  PHE150      0.2290
     13  O         35.4330    9.2030  110.0330 O.2   150  PHE150     -0.2864
     14  CB        35.6460    7.6710  107.6480 C.3   150  PHE150      0.0560
     15  CG        35.5260    6.4020  106.8490 C.ar  150  PHE150     -0.0200
     16  CD1       36.4310    6.1170  105.8330 C.ar  150  PHE150     -0.0042
     17  CD2       34.5030    5.4880  107.1150 C.ar  150  PHE150     -0.0042
     18  CE1       36.3200    4.9410  105.0880 C.ar  150  PHE150     -0.0003
     19  CE2       34.3840    4.3100  106.3750 C.ar  150  PHE150     -0.0003
     20  CZ        35.2920    4.0360  105.3610 C.ar  150  PHE150     -0.0000
     21  N         39.5370    5.6520  109.0460 N.3   155  PRO155     -0.2102
     22  CA        38.8080    4.6960  109.8800 C.3   155  PRO155      0.1504
     23  C         39.7960    3.9270  110.7420 C.2   155  PRO155      0.2575
     24  O         39.4540    3.4350  111.8030 O.2   155  PRO155     -0.2718
     25  CB        38.0770    3.8190  108.8550 C.3   155  PRO155      0.0282
     26  CG        38.9210    3.9390  107.6270 C.3   155  PRO155      0.0208
     27  CD        39.3230    5.3840  107.6160 C.3   155  PRO155      0.0893
     28  N         41.0280    3.8150  110.2650 N.am  156  TYR156     -0.1977
     29  CA        42.0980    3.1480  110.9970 C.3   156  TYR156      0.1639
     30  C         43.3990    3.4690  110.2740 C.2   156  TYR156      0.2290
     31  O         43.4180    3.6150  109.0540 O.2   156  TYR156     -0.2864
     32  CB        41.8510    1.6300  111.1450 C.3   156  TYR156      0.0560
     33  CG        41.5450    0.8500  109.8840 C.ar  156  TYR156     -0.0198
     34  CD1       42.5290    0.0770  109.2570 C.ar  156  TYR156     -0.0009
     35  CD2       40.2600    0.8520  109.3360 C.ar  156  TYR156     -0.0009
     36  CE1       42.2400   -0.6820  108.1120 C.ar  156  TYR156      0.0417
     37  CE2       39.9600    0.1030  108.1940 C.ar  156  TYR156      0.0417
     38  CZ        40.9560   -0.6620  107.5880 C.ar  156  TYR156      0.1957
     39  OH        40.6580   -1.4040  106.4630 O.3   156  TYR156     -0.2866
     40  N         44.3760    1.8890  106.9680 N.3   159  TYR159     -0.1241
     41  CA        43.3700    1.9280  105.9230 C.3   159  TYR159      0.1605
     42  C         43.9800    2.4770  104.6270 C.2   159  TYR159      0.2264
     43  O         44.5860    3.5530  104.6180 O.2   159  TYR159     -0.2867
     44  CB        42.2150    2.8140  106.3540 C.3   159  TYR159      0.0534
     45  CG        41.1970    3.0450  105.2710 C.ar  159  TYR159     -0.0201
     46  CD1       40.3920    2.0020  104.8000 C.ar  159  TYR159     -0.0009
     47  CD2       41.0300    4.3130  104.7190 C.ar  159  TYR159     -0.0009
     48  CE1       39.4390    2.2270  103.8040 C.ar  159  TYR159      0.0417
     49  CE2       40.0980    4.5440  103.7320 C.ar  159  TYR159      0.0417
     50  CZ        39.3060    3.5090  103.2800 C.ar  159  TYR159      0.1957
     51  OH        38.3800    3.7730  102.3160 O.3   159  TYR159     -0.2866
     52  N         42.0220    2.1560  101.4980 N.3   161  GLY161     -0.1225
     53  CA        40.9820    2.1550  100.4790 C.3   161  GLY161      0.1811
     54  C         40.5560    3.5260   99.9460 C.2   161  GLY161      0.2280
     55  O         41.0910    4.5610  100.3540 O.2   161  GLY161     -0.2866
     56  N         32.4750   -7.2870   98.1250 N.3   184  TRP184     -0.1227
     57  CA        33.0030   -6.2530   99.0230 C.3   184  TRP184      0.1737
     58  C         33.9470   -6.6880  100.1510 C.2   184  TRP184      0.2596
     59  O         33.7660   -7.7410  100.7750 O.2   184  TRP184     -0.2718
     60  CB        31.8320   -5.5010   99.6610 C.3   184  TRP184      0.0564
     61  CG        32.2310   -4.2850  100.4640 C.ar  184  TRP184      0.0003
     62  CD1       32.2320   -2.9860  100.0350 C.ar  184  TRP184      0.0946
     63  CD2       32.6990   -4.2610  101.8220 C.ar  184  TRP184      0.0152
     64  NE1       32.6710   -2.1570  101.0400 N.ar  184  TRP184     -0.2442
     65  CE2       32.9660   -2.9110  102.1460 C.ar  184  TRP184      0.0810
     66  CE3       32.9190   -5.2470  102.7940 C.ar  184  TRP184      0.0012
     67  CZ2       33.4430   -2.5210  103.4030 C.ar  184  TRP184      0.0191
     68  CZ3       33.3970   -4.8590  104.0490 C.ar  184  TRP184      0.0001
     69  CH2       33.6530   -3.5050  104.3380 C.ar  184  TRP184      0.0015
     70  N         34.9580   -5.8590  100.4100 N.am  185  GLY185     -0.1942
     71  CA        35.8640   -6.1210  101.5160 C.3   185  GLY185      0.2014
     72  C         37.2460   -6.7290  101.3920 C.2   185  GLY185      0.2639
     73  O         37.5140   -7.5800  100.5440 O.2   185  GLY185     -0.2714
     74  N         38.1220   -6.2560  102.2740 N.am  186  GLY186     -0.1939
     75  CA        39.4910   -6.7310  102.3820 C.3   186  GLY186      0.2014
     76  C         40.5460   -6.6330  101.2950 C.2   186  GLY186      0.2639
     77  O         41.7280   -6.8110  101.6060 O.2   186  GLY186     -0.2714
     78  N         40.1780   -6.3600  100.0460 N.am  187  GLU187     -0.1963
     79  CA        41.2030   -6.3000   99.0050 C.3   187  GLU187      0.1733
     80  C         42.1500   -5.1130   99.2090 C.2   187  GLU187      0.2616
     81  O         43.3110   -5.1680   98.8030 O.2   187  GLU187     -0.2715
     82  CB        40.5730   -6.2570   97.6040 C.3   187  GLU187      0.0429
     83  CG        40.2180   -4.8800   97.0940 C.3   187  GLU187      0.1163
     84  CD        39.0850   -4.2370   97.8590 C.2   187  GLU187      0.3649
     85  OE1       38.8460   -3.0350   97.6340 O.co2 187  GLU187     -0.2457
     86  OE2       38.4340   -4.9290   98.6740 O.co2 187  GLU187     -0.2457
     87  N         41.6590   -4.0540   99.8510 N.am  188  ASP188     -0.1957
     88  CA        42.4990   -2.8880  100.1200 C.3   188  ASP188      0.1840
     89  C         43.4920   -3.1620  101.2550 C.2   188  ASP188      0.2622
     90  O         44.6120   -2.6530  101.2410 O.2   188  ASP188     -0.2715
     91  CB        41.6360   -1.6490  100.4210 C.3   188  ASP188      0.1450
     92  CG        40.5560   -1.9120  101.4620 C.2   188  ASP188      0.3671
     93  OD1       40.0420   -3.0540  101.5280 O.co2 188  ASP188     -0.2456
     94  OD2       40.2100   -0.9570  102.1980 O.co2 188  ASP188     -0.2456
     95  N         43.0990   -3.9810  102.2270 N.am  189  ASP189     -0.1971
     96  CA        44.0060   -4.3180  103.3160 C.3   189  ASP189      0.1709
     97  C         45.0830   -5.2550  102.7680 C.2   189  ASP189      0.2293
     98  O         46.2410   -5.2180  103.1870 O.2   189  ASP189     -0.2864
     99  CB        43.2460   -4.9980  104.4590 C.3   189  ASP189      0.1436
    100  CG        42.1930   -4.0960  105.0700 C.2   189  ASP189      0.3671
    101  OD1       42.4900   -2.8940  105.2590 O.co2 189  ASP189     -0.2456
    102  OD2       41.0770   -4.5820  105.3700 O.co2 189  ASP189     -0.2456
    103  N         37.2270  -12.8960  103.2650 N.3   229  ARG229     -0.1231
    104  CA        38.1750  -11.7920  103.1610 C.3   229  ARG229      0.1694
    105  C         39.1620  -11.7630  104.3260 C.2   229  ARG229      0.2592
    106  O         40.3660  -11.5980  104.1210 O.2   229  ARG229     -0.2718
    107  CB        37.4330  -10.4510  103.0600 C.3   229  ARG229      0.0321
    108  CG        36.5430  -10.0960  104.2430 C.3   229  ARG229      0.0489
    109  CD        35.7590   -8.8240  103.9400 C.3   229  ARG229      0.2205
    110  NE        35.0460   -8.2980  105.1040 N.pl3 229  ARG229     -0.0865
    111  CZ        33.8230   -8.6630  105.4820 C.cat 229  ARG229      0.5346
    112  NH1       33.1390   -9.5710  104.7910 N.pl3 229  ARG229      0.1354
    113  NH2       33.2830   -8.1150  106.5610 N.pl3 229  ARG229      0.1354
    114  N         38.6660  -11.9380  105.5480 N.am  230  PHE230     -0.1976
    115  CA        39.5540  -11.9170  106.7060 C.3   230  PHE230      0.1639
    116  C         40.6550  -12.9540  106.5720 C.2   230  PHE230      0.2290
    117  O         41.8290  -12.6700  106.8310 O.2   230  PHE230     -0.2864
    118  CB        38.7690  -12.1620  107.9920 C.3   230  PHE230      0.0560
    119  CG        37.6160  -11.2270  108.1720 C.ar  230  PHE230     -0.0200
    120  CD1       36.3190  -11.6440  107.8990 C.ar  230  PHE230     -0.0042
    121  CD2       37.8310   -9.9110  108.5570 C.ar  230  PHE230     -0.0042
    122  CE1       35.2520  -10.7590  108.0040 C.ar  230  PHE230     -0.0003
    123  CE2       36.7700   -9.0190  108.6630 C.ar  230  PHE230     -0.0003
    124  CZ        35.4800   -9.4440  108.3850 C.ar  230  PHE230     -0.0000
    125  N         43.4790  -11.8940  103.8190 N.3   233  ILE233     -0.1245
    126  CA        44.4800  -10.8890  104.1780 C.3   233  ILE233      0.1561
    127  C         45.5010  -11.4350  105.1720 C.2   233  ILE233      0.2260
    128  O         46.5800  -10.8630  105.3520 O.2   233  ILE233     -0.2867
    129  CB        43.8280   -9.6000  104.7620 C.3   233  ILE233      0.0252
    130  CG1       43.1120   -9.9050  106.0770 C.3   233  ILE233      0.0019
    131  CG2       42.8480   -9.0110  103.7490 C.3   233  ILE233      0.0019
    132  CD1       42.4610   -8.6800  106.7150 C.3   233  ILE233      0.0001
@<TRIPOS>BOND
     1    83    82    1
     2    83    84    1
     3    82    79    1
     4    85    84   ar
     5    84    86   ar
     6    56    57    1
     7    81    80    2
     8    79    80    1
     9    79    78    1
    10    57    60    1
    11    57    58    1
    12    80    87   am
    13    60    61    1
    14    87    88    1
    15    54    55    2
    16    54    53    1
    17    62    61   ar
    18    62    64   ar
    19    78    76   am
    20    88    91    1
    21    88    89    1
    22    58    70   am
    23    58    59    2
    24    70    71    1
    25    91    92    1
    26    61    63   ar
    27    53    52    1
    28    73    72    2
    29    64    65   ar
    30    90    89    2
    31    89    95   am
    32    76    77    2
    33    76    75    1
    34    72    71    1
    35    72    74   am
    36    92    93   ar
    37    92    94   ar
    38     9     8    1
    39    63    65   ar
    40    63    66   ar
    41    65    67   ar
    42    95    96    1
    43    74    75    1
    44    51    50    1
    45    97    98    2
    46    97    96    1
    47    66    68   ar
    48     8     7    1
    49   107   104    1
    50   107   108    1
    51     7     6    1
    52   104   103    1
    53   104   105    1
    54    50    49   ar
    55    50    48   ar
    56    96    99    1
    57    67    69   ar
    58    49    47   ar
    59   131   129    1
    60    48    46   ar
    61   125   126    1
    62   109   108    1
    63   109   110    1
    64    68    69   ar
    65   106   105    2
    66   126   129    1
    67   126   127    1
    68     6     5    1
    69   105   114   am
    70     5     2    1
    71    99   100    1
    72    43    42    2
    73    42    41    1
    74    47    45   ar
    75   129   130    1
    76   112   111    1
    77    46    45   ar
    78   100   101   ar
    79   100   102   ar
    80    18    20   ar
    81    18    16   ar
    82   110   111    2
    83     1     2    1
    84   127   128    2
    85    45    44    1
    86    20    19   ar
    87   111   113    1
    88   114   115    1
    89     2     3    1
    90    16    15   ar
    91    41    44    1
    92    41    40    1
    93   130   132    1
    94    19    17   ar
    95    39    38    1
    96   116   115    1
    97   116   117    2
    98   115   118    1
    99     3    10   am
   100     3     4    2
   101    15    17   ar
   102    15    14    1
   103    10    11    1
   104    38    36   ar
   105    38    37   ar
   106    27    26    1
   107    27    21    1
   108    26    25    1
   109    14    11    1
   110   120   122   ar
   111   120   119   ar
   112   118   119    1
   113   122   124   ar
   114    36    34   ar
   115    11    12    1
   116   119   121   ar
   117    37    35   ar
   118   124   123   ar
   119   121   123   ar
   120    25    22    1
   121    21    22    1
   122    31    30    2
   123    12    13    2
   124    34    33   ar
   125    35    33   ar
   126    22    23    1
   127    33    32    1
   128    28    23   am
   129    28    29    1
   130    30    29    1
   131    23    24    2
   132    29    32    1
