@<TRIPOS>MOLECULE
tmp/2ae7B00.pdb
 132 132 0 0 0
SMALL
GASTEIGER

@<TRIPOS>ATOM
      1  N         52.4670   31.5100   78.7740 N.3   149  LYS149     -0.1231
      2  CA        53.1920   31.3520   77.5180 C.3   149  LYS149      0.1693
      3  C         54.6930   31.2560   77.6720 C.2   149  LYS149      0.2592
      4  O         55.3830   30.8950   76.7240 O.2   149  LYS149     -0.2718
      5  CB        52.8340   32.4620   76.5210 C.3   149  LYS149      0.0285
      6  CG        53.3320   33.8540   76.8420 C.3   149  LYS149      0.0035
      7  CD        53.0680   34.7470   75.6260 C.3   149  LYS149      0.0206
      8  CE        53.5110   36.1840   75.8500 C.3   149  LYS149      0.1093
      9  NZ        53.1380   37.0900   74.7210 N.3   149  LYS149     -0.1314
     10  N         55.1950   31.5730   78.8620 N.am  150  PHE150     -0.1976
     11  CA        56.6170   31.4660   79.1420 C.3   150  PHE150      0.1639
     12  C         56.8300   30.3600   80.1920 C.2   150  PHE150      0.2290
     13  O         57.7810   30.4130   80.9800 O.2   150  PHE150     -0.2864
     14  CB        57.1510   32.7930   79.6740 C.3   150  PHE150      0.0560
     15  CG        57.1720   33.8880   78.6510 C.ar  150  PHE150     -0.0200
     16  CD1       56.7580   35.1730   78.9810 C.ar  150  PHE150     -0.0042
     17  CD2       57.6360   33.6470   77.3630 C.ar  150  PHE150     -0.0042
     18  CE1       56.8050   36.2000   78.0560 C.ar  150  PHE150     -0.0003
     19  CE2       57.6870   34.6820   76.4240 C.ar  150  PHE150     -0.0003
     20  CZ        57.2680   35.9580   76.7800 C.ar  150  PHE150     -0.0000
     21  N         60.9120   34.7560   81.1750 N.3   155  PRO155     -0.2102
     22  CA        61.6730   34.2170   80.0390 C.3   155  PRO155      0.1504
     23  C         63.1550   34.5080   80.2500 C.2   155  PRO155      0.2575
     24  O         64.0180   33.7680   79.7860 O.2   155  PRO155     -0.2718
     25  CB        61.0810   34.9500   78.8340 C.3   155  PRO155      0.0282
     26  CG        60.6040   36.2730   79.4320 C.3   155  PRO155      0.0208
     27  CD        60.0330   35.8720   80.7740 C.3   155  PRO155      0.0893
     28  N         63.4400   35.6090   80.9380 N.am  156  TYR156     -0.1977
     29  CA        64.8180   35.9730   81.2780 C.3   156  TYR156      0.1639
     30  C         64.6960   36.9540   82.4200 C.2   156  TYR156      0.2290
     31  O         63.6790   37.6350   82.5380 O.2   156  TYR156     -0.2864
     32  CB        65.6090   36.5430   80.0790 C.3   156  TYR156      0.0560
     33  CG        64.9460   37.6470   79.2700 C.ar  156  TYR156     -0.0198
     34  CD1       65.2970   38.9910   79.4490 C.ar  156  TYR156     -0.0009
     35  CD2       64.0020   37.3360   78.2940 C.ar  156  TYR156     -0.0009
     36  CE1       64.7060   40.0110   78.6530 C.ar  156  TYR156      0.0417
     37  CE2       63.4200   38.3250   77.5150 C.ar  156  TYR156      0.0417
     38  CZ        63.7710   39.6500   77.6930 C.ar  156  TYR156      0.1957
     39  OH        63.1730   40.5890   76.9000 O.3   156  TYR156     -0.2866
     40  N         63.4990   40.6140   81.8870 N.3   159  TYR159     -0.1241
     41  CA        62.2480   40.7730   81.1430 C.3   159  TYR159      0.1605
     42  C         61.2970   41.7400   81.8560 C.2   159  TYR159      0.2264
     43  O         60.9540   41.5460   83.0250 O.2   159  TYR159     -0.2867
     44  CB        61.5680   39.4220   80.9830 C.3   159  TYR159      0.0534
     45  CG        60.2170   39.5110   80.2970 C.ar  159  TYR159     -0.0201
     46  CD1       60.1030   39.9410   78.9720 C.ar  159  TYR159     -0.0009
     47  CD2       59.0580   39.1750   80.9880 C.ar  159  TYR159     -0.0009
     48  CE1       58.8340   40.0390   78.3550 C.ar  159  TYR159      0.0417
     49  CE2       57.8090   39.2590   80.3920 C.ar  159  TYR159      0.0417
     50  CZ        57.7000   39.6930   79.0860 C.ar  159  TYR159      0.1957
     51  OH        56.4360   39.7940   78.5650 O.3   159  TYR159     -0.2866
     52  N         58.3890   43.0230   80.0680 N.3   161  GLY161     -0.1225
     53  CA        57.2290   43.1830   79.2160 C.3   161  GLY161      0.1811
     54  C         55.9180   42.7000   79.8170 C.2   161  GLY161      0.2280
     55  O         55.8660   42.1760   80.9410 O.2   161  GLY161     -0.2866
     56  N         57.0650   45.0060   66.4010 N.3   184  TRP184     -0.1227
     57  CA        57.3040   44.1650   67.5630 C.3   184  TRP184      0.1737
     58  C         58.7230   44.0210   68.1120 C.2   184  TRP184      0.2596
     59  O         59.6830   43.8910   67.3530 O.2   184  TRP184     -0.2718
     60  CB        56.8000   42.7620   67.2530 C.3   184  TRP184      0.0564
     61  CG        56.8330   41.8320   68.4120 C.ar  184  TRP184      0.0003
     62  CD1       55.7930   41.5210   69.2350 C.ar  184  TRP184      0.0946
     63  CD2       57.9550   41.0600   68.8660 C.ar  184  TRP184      0.0152
     64  NE1       56.1930   40.5960   70.1710 N.ar  184  TRP184     -0.2442
     65  CE2       57.5150   40.2950   69.9670 C.ar  184  TRP184      0.0810
     66  CE3       59.2900   40.9390   68.4460 C.ar  184  TRP184      0.0012
     67  CZ2       58.3630   39.4150   70.6610 C.ar  184  TRP184      0.0191
     68  CZ3       60.1350   40.0620   69.1370 C.ar  184  TRP184      0.0001
     69  CH2       59.6650   39.3150   70.2290 C.ar  184  TRP184      0.0015
     70  N         58.8340   44.0260   69.4400 N.am  185  GLY185     -0.1942
     71  CA        60.1120   43.7880   70.0990 C.3   185  GLY185      0.2014
     72  C         61.0780   44.8710   70.5320 C.2   185  GLY185      0.2639
     73  O         61.2290   45.8990   69.8690 O.2   185  GLY185     -0.2714
     74  N         61.7360   44.6140   71.6680 N.am  186  GLY186     -0.1939
     75  CA        62.7420   45.5180   72.2190 C.3   186  GLY186      0.2014
     76  C         62.3530   46.7540   73.0170 C.2   186  GLY186      0.2639
     77  O         63.1330   47.2170   73.8650 O.2   186  GLY186     -0.2714
     78  N         61.1640   47.3030   72.7860 N.am  187  GLU187     -0.1963
     79  CA        60.8080   48.5110   73.5150 C.3   187  GLU187      0.1733
     80  C         60.7360   48.2380   75.0180 C.2   187  GLU187      0.2616
     81  O         61.0290   49.1200   75.8280 O.2   187  GLU187     -0.2715
     82  CB        59.4810   49.1130   72.9790 C.3   187  GLU187      0.0429
     83  CG        58.2030   48.6030   73.6180 C.3   187  GLU187      0.1163
     84  CD        57.9220   47.1340   73.3570 C.2   187  GLU187      0.3649
     85  OE1       57.1640   46.5460   74.1520 O.co2 187  GLU187     -0.2457
     86  OE2       58.4320   46.5720   72.3660 O.co2 187  GLU187     -0.2457
     87  N         60.3530   47.0220   75.3990 N.am  188  ASP188     -0.1957
     88  CA        60.2780   46.7070   76.8240 C.3   188  ASP188      0.1840
     89  C         61.6860   46.5640   77.4250 C.2   188  ASP188      0.2622
     90  O         61.9220   46.9110   78.5950 O.2   188  ASP188     -0.2715
     91  CB        59.4220   45.4540   77.0500 C.3   188  ASP188      0.1450
     92  CG        59.8310   44.2900   76.1670 C.2   188  ASP188      0.3671
     93  OD1       60.3380   44.5280   75.0410 O.co2 188  ASP188     -0.2456
     94  OD2       59.6260   43.1400   76.5990 O.co2 188  ASP188     -0.2456
     95  N         62.6310   46.0680   76.6300 N.am  189  ASP189     -0.1971
     96  CA        64.0050   45.9560   77.1150 C.3   189  ASP189      0.1709
     97  C         64.6010   47.3660   77.2450 C.2   189  ASP189      0.2293
     98  O         65.3750   47.6440   78.1600 O.2   189  ASP189     -0.2864
     99  CB        64.8480   45.1320   76.1520 C.3   189  ASP189      0.1436
    100  CG        64.4010   43.6910   76.0880 C.2   189  ASP189      0.3671
    101  OD1       64.1220   43.0900   77.1540 O.co2 189  ASP189     -0.2456
    102  OD2       64.3440   43.1520   74.9790 O.co2 189  ASP189     -0.2456
    103  N         65.5540   46.5450   66.3340 N.3   229  ARG229     -0.1231
    104  CA        65.4390   46.4620   67.7920 C.3   229  ARG229      0.1694
    105  C         66.7110   46.1600   68.5820 C.2   229  ARG229      0.2592
    106  O         66.9560   46.7840   69.6240 O.2   229  ARG229     -0.2718
    107  CB        64.3320   45.4770   68.1860 C.3   229  ARG229      0.0321
    108  CG        64.5840   44.0070   67.8920 C.3   229  ARG229      0.0489
    109  CD        63.3200   43.2230   68.2470 C.3   229  ARG229      0.2205
    110  NE        63.4110   41.7710   68.0550 N.pl3 229  ARG229     -0.0865
    111  CZ        63.3900   41.1600   66.8750 C.cat 229  ARG229      0.5346
    112  NH1       63.2860   41.8760   65.7560 N.pl3 229  ARG229      0.1354
    113  NH2       63.4610   39.8280   66.8170 N.pl3 229  ARG229      0.1354
    114  N         67.5290   45.2280   68.0980 N.am  230  PHE230     -0.1976
    115  CA        68.7470   44.9050   68.8310 C.3   230  PHE230      0.1639
    116  C         69.6820   46.0920   68.8700 C.2   230  PHE230      0.2290
    117  O         70.2850   46.3670   69.8960 O.2   230  PHE230     -0.2864
    118  CB        69.4370   43.7020   68.2130 C.3   230  PHE230      0.0560
    119  CG        68.5400   42.5140   68.0880 C.ar  230  PHE230     -0.0200
    120  CD1       67.9920   42.1710   66.8600 C.ar  230  PHE230     -0.0042
    121  CD2       68.1910   41.7760   69.2100 C.ar  230  PHE230     -0.0042
    122  CE1       67.1050   41.1130   66.7500 C.ar  230  PHE230     -0.0003
    123  CE2       67.3000   40.7130   69.1110 C.ar  230  PHE230     -0.0003
    124  CZ        66.7570   40.3830   67.8740 C.ar  230  PHE230     -0.0000
    125  N         68.1370   48.8490   71.4350 N.3   233  ILE233     -0.1245
    126  CA        68.2660   48.6130   72.8770 C.3   233  ILE233      0.1561
    127  C         69.7190   48.7250   73.3460 C.2   233  ILE233      0.2260
    128  O         69.9780   48.9400   74.5280 O.2   233  ILE233     -0.2867
    129  CB        67.6800   47.2370   73.3160 C.3   233  ILE233      0.0252
    130  CG1       68.4820   46.0840   72.7080 C.3   233  ILE233      0.0019
    131  CG2       66.2200   47.1580   72.9230 C.3   233  ILE233      0.0019
    132  CD1       68.0930   44.7060   73.2730 C.3   233  ILE233      0.0001
@<TRIPOS>BOND
     1   112   111    1
     2   103   104    1
     3    56    57    1
     4   122   120   ar
     5   122   124   ar
     6   113   111    1
     7   120   119   ar
     8   111   110    2
     9    60    57    1
    10    60    61    1
    11    59    58    2
    12    57    58    1
    13   104   107    1
    14   104   105    1
    15   124   123   ar
    16   108   107    1
    17   108   109    1
    18   110   109    1
    19   119   118    1
    20   119   121   ar
    21   114   105   am
    22   114   115    1
    23    58    70   am
    24   118   115    1
    25    61    63   ar
    26    61    62   ar
    27    66    63   ar
    28    66    68   ar
    29   105   106    2
    30   115   116    1
    31    63    65   ar
    32   116   117    2
    33   123   121   ar
    34    68    69   ar
    35    62    64   ar
    36    70    71    1
    37    73    72    2
    38    65    64   ar
    39    65    67   ar
    40    71    72    1
    41    69    67   ar
    42    72    74   am
    43   125   126    1
    44    74    75    1
    45    75    76    1
    46    86    84   ar
    47   130   132    1
    48   130   129    1
    49    78    76   am
    50    78    79    1
    51   126   129    1
    52   126   127    1
    53   131   129    1
    54    82    79    1
    55    82    83    1
    56    76    77    2
    57   127   128    2
    58    84    83    1
    59    84    85   ar
    60    79    80    1
    61     9     8    1
    62   102   100   ar
    63    80    87   am
    64    80    81    2
    65    93    92   ar
    66    87    88    1
    67     7     8    1
    68     7     6    1
    69   100    99    1
    70   100   101   ar
    71    99    96    1
    72    92    94   ar
    73    92    91    1
    74    19    20   ar
    75    19    17   ar
    76     5     6    1
    77     5     2    1
    78    95    96    1
    79    95    89   am
    80     4     3    2
    81    20    18   ar
    82    88    91    1
    83    88    89    1
    84    39    38    1
    85    96    97    1
    86    97    98    2
    87    17    15   ar
    88    89    90    2
    89    37    38   ar
    90    37    35   ar
    91     2     3    1
    92     2     1    1
    93     3    10   am
    94    38    36   ar
    95    18    16   ar
    96    35    33   ar
    97    48    46   ar
    98    48    50   ar
    99    51    50    1
   100    15    16   ar
   101    15    14    1
   102    36    34   ar
   103    25    26    1
   104    25    22    1
   105    10    11    1
   106    46    45   ar
   107    50    49   ar
   108    11    14    1
   109    11    12    1
   110    53    54    1
   111    53    52    1
   112    33    34   ar
   113    33    32    1
   114    26    27    1
   115    24    23    2
   116    54    55    2
   117    22    23    1
   118    22    21    1
   119    32    29    1
   120    12    13    2
   121    23    28   am
   122    45    44    1
   123    45    47   ar
   124    49    47   ar
   125    27    21    1
   126    28    29    1
   127    44    41    1
   128    41    42    1
   129    41    40    1
   130    29    30    1
   131    42    43    2
   132    30    31    2
