@<TRIPOS>MOLECULE
tmp/2aeiB00.pdb
 173 168 0 0 0
SMALL
GASTEIGER

@<TRIPOS>ATOM
      1  N         20.2850    8.7700    1.7750 N.3    25  LEU25      -0.1231
      2  CA        21.6230    9.3280    1.9340 C.3    25  LEU25       0.1693
      3  C         22.0160    9.6430    3.3730 C.2    25  LEU25       0.2592
      4  O         22.7930    8.9190    3.9920 O.2    25  LEU25      -0.2718
      5  CB        21.7880   10.6020    1.0880 C.3    25  LEU25       0.0284
      6  CG        23.2110   11.1770    0.9460 C.3    25  LEU25       0.0019
      7  CD1       24.0200   10.3330   -0.0130 C.3    25  LEU25       0.0001
      8  CD2       23.2030   12.6080    0.4450 C.3    25  LEU25       0.0001
      9  N         21.4720   10.7280    3.9050 N.am   26  CYS26      -0.1970
     10  CA        21.8260   11.1740    5.2420 C.3    26  CYS26       0.1712
     11  C         20.6360   11.7670    5.9140 C.2    26  CYS26       0.2296
     12  O         19.5750   11.8790    5.3120 O.2    26  CYS26      -0.2864
     13  CB        22.8900   12.2800    5.1580 C.3    26  CYS26       0.0983
     14  SG        24.5750   11.6440    5.3390 S.3    26  CYS26      -0.0798
     15  N         30.2610   15.6290    4.9700 N.3    41  HIS41      -0.1226
     16  CA        30.7240   14.3260    4.4980 C.3    41  HIS41       0.1752
     17  C         29.7100   13.4520    3.7320 C.2    41  HIS41       0.2596
     18  O         30.0860   12.4400    3.1530 O.2    41  HIS41      -0.2718
     19  CB        31.4490   13.5440    5.6270 C.3    41  HIS41       0.0759
     20  CG        30.5520   12.7020    6.4890 C.ar   41  HIS41       0.0818
     21  ND1       30.4830   12.8500    7.8580 N.ar   41  HIS41      -0.2268
     22  CD2       29.7100   11.6830    6.1850 C.ar   41  HIS41       0.1154
     23  CE1       29.6330   11.9730    8.3570 C.ar   41  HIS41       0.1986
     24  NE2       29.1510   11.2510    7.3630 N.ar   41  HIS41      -0.2212
     25  N         28.4350   13.8200    3.7240 N.am   42  CYS42      -0.1970
     26  CA        27.4450   13.0400    2.9900 C.3    42  CYS42       0.1712
     27  C         27.5900   13.2860    1.4820 C.2    42  CYS42       0.2296
     28  O         27.2880   12.4270    0.6450 O.2    42  CYS42      -0.2864
     29  CB        26.0480   13.4390    3.4400 C.3    42  CYS42       0.0983
     30  SG        25.7750   13.2620    5.2420 S.3    42  CYS42      -0.0798
     31  N         30.5480   13.7950   -0.2150 N.3    44  ASP44      -0.1239
     32  CA        31.8990   13.4610   -0.6950 C.3    44  ASP44       0.1674
     33  C         32.0090   12.7740   -2.0400 C.2    44  ASP44       0.2266
     34  O         32.8900   13.0930   -2.8340 O.2    44  ASP44      -0.2867
     35  CB        32.6620   12.6310    0.3450 C.3    44  ASP44       0.1410
     36  CG        33.2550   13.4780    1.4710 C.2    44  ASP44       0.3668
     37  OD1       33.8570   12.8820    2.3880 O.co2  44  ASP44      -0.2456
     38  OD2       33.1410   14.7260    1.4450 O.co2  44  ASP44      -0.2456
     39  N         36.9070   13.2150    3.1490 N.3    85  GLY85      -0.1210
     40  CA        37.5560   12.0550    3.6930 C.3    85  GLY85       0.1956
     41  C         38.0340   12.3480    5.0970 C.2    85  GLY85       0.2613
     42  O         38.3320   11.4120    5.8280 O.2    85  GLY85      -0.2717
     43  N         38.1310   13.6180    5.4920 N.am   86  THR86      -0.1938
     44  CA        38.5790   13.9070    6.8490 C.3    86  THR86       0.2028
     45  C         37.4350   14.1800    7.7910 C.2    86  THR86       0.2642
     46  O         36.2650   14.1090    7.4120 O.2    86  THR86      -0.2714
     47  CB        39.6120   15.0520    6.9680 C.3    86  THR86       0.1808
     48  OG1       38.9550   16.3250    6.8840 O.3    86  THR86      -0.2208
     49  CG2       40.6910   14.9150    5.9200 C.3    86  THR86       0.0379
     50  N         37.8150   14.6400    8.9740 N.am   87  THR87      -0.1950
     51  CA        36.9330   14.8800   10.0900 C.3    87  THR87       0.1897
     52  C         36.4880   16.3060   10.4380 C.2    87  THR87       0.2313
     53  O         35.3190   16.5360   10.7640 O.2    87  THR87      -0.2863
     54  CB        37.6080   14.1860   11.2860 C.3    87  THR87       0.1794
     55  OG1       37.0720   12.8660   11.4300 O.3    87  THR87      -0.2208
     56  CG2       37.5070   14.9770   12.5600 C.3    87  THR87       0.0378
     57  N         32.7120   19.3500    9.6820 N.3    90  ASP90      -0.1239
     58  CA        31.7490   18.5130    9.0000 C.3    90  ASP90       0.1674
     59  C         30.3320   19.0670    9.1280 C.2    90  ASP90       0.2266
     60  O         29.5060   18.5180    9.8590 O.2    90  ASP90      -0.2867
     61  CB        31.8580   17.0870    9.5530 C.3    90  ASP90       0.1410
     62  CG        31.2290   16.0590    8.6570 C.2    90  ASP90       0.3668
     63  OD1       30.7400   15.0510    9.1890 O.co2  90  ASP90      -0.2456
     64  OD2       31.2380   16.2350    7.4270 O.co2  90  ASP90      -0.2456
     65  N         22.0090    2.6060   10.7450 N.3   134  GLN134     -0.1245
     66  CA        22.2270    1.2270   11.1660 C.3   134  GLN134      0.1566
     67  C         21.8860    1.0280   12.6190 C.2   134  GLN134      0.2260
     68  O         22.0910    1.9310   13.4420 O.2   134  GLN134     -0.2867
     69  CB        23.6640    0.7920   10.9020 C.3   134  GLN134      0.0367
     70  CG        23.9730    0.7580    9.4270 C.3   134  GLN134      0.0905
     71  CD        25.4250    0.5090    9.1230 C.2   134  GLN134      0.2608
     72  OE1       26.1920    0.0950    9.9910 O.2   134  GLN134     -0.2717
     73  NE2       25.8190    0.7630    7.8790 N.am  134  GLN134     -0.0878
     74  N         41.4710   10.4170   14.6840 N.3   169  PRO169     -0.2116
     75  CA        41.6150   11.8350   14.3420 C.3   169  PRO169      0.1372
     76  C         41.3100   12.6880   15.5780 C.2   169  PRO169      0.2244
     77  O         40.3700   12.4090   16.3290 O.2   169  PRO169     -0.2868
     78  CB        40.5830   12.0320   13.2300 C.3   169  PRO169      0.0268
     79  CG        39.5520   11.0070   13.5250 C.3   169  PRO169      0.0207
     80  CD        40.3480    9.8050   13.9520 C.3   169  PRO169      0.0892
     81  N         24.7650    4.7590   20.8680 N.3   186  ASP186     -0.1225
     82  CA        25.5130    5.6700   20.0050 C.3   186  ASP186      0.1805
     83  C         24.8110    5.9290   18.6640 C.2   186  ASP186      0.2598
     84  O         23.8850    5.2070   18.2800 O.2   186  ASP186     -0.2718
     85  CB        26.8920    5.0490   19.7080 C.3   186  ASP186      0.1424
     86  CG        27.8030    5.9500   18.8480 C.2   186  ASP186      0.3668
     87  OD1       27.6910    7.2000   18.8930 O.co2 186  ASP186     -0.2456
     88  OD2       28.6640    5.3900   18.1340 O.co2 186  ASP186     -0.2456
     89  N         25.2040    7.0090   17.9940 N.am  187  SER187     -0.1938
     90  CA        24.7000    7.3000   16.6660 C.3   187  SER187      0.2055
     91  C         25.4640    6.2580   15.8290 C.2   187  SER187      0.2643
     92  O         26.3300    5.5560   16.3530 O.2   187  SER187     -0.2714
     93  CB        25.0360    8.7450   16.2480 C.3   187  SER187      0.2130
     94  OG        26.3400    9.1330   16.6490 O.3   187  SER187     -0.2179
     95  N         25.1510    6.1360   14.5470 N.am  188  CYS188     -0.1953
     96  CA        25.8150    5.1360   13.7280 C.3   188  CYS188      0.1843
     97  C         25.7920    5.5480   12.2610 C.2   188  CYS188      0.2625
     98  O         25.1230    6.5100   11.8780 O.2   188  CYS188     -0.2714
     99  CB        25.1250    3.7890   13.9240 C.3   188  CYS188      0.0997
    100  SG        25.9880    2.3600   13.2000 S.3   188  CYS188     -0.0797
    101  N         26.6150    4.9000   11.4550 N.am  189  LYS189     -0.1963
    102  CA        26.6650    5.2100   10.0390 C.3   189  LYS189      0.1728
    103  C         25.2170    5.2500    9.5260 C.2   189  LYS189      0.2616
    104  O         24.3850    4.4430    9.9320 O.2   189  LYS189     -0.2715
    105  CB        27.4570    4.1200    9.3280 C.3   189  LYS189      0.0311
    106  CG        28.7880    3.8230    9.9700 C.3   189  LYS189      0.0038
    107  CD        29.5040    2.6700    9.2570 C.3   189  LYS189      0.0206
    108  CE        30.5930    2.0380   10.1380 C.3   189  LYS189      0.1093
    109  NZ        31.5220    3.0530   10.7620 N.3   189  LYS189     -0.1314
    110  N         24.8960    6.2160    8.6790 N.am  190  GLY190     -0.1955
    111  CA        23.5390    6.3150    8.1680 C.3   190  GLY190      0.1869
    112  C         22.7680    7.4010    8.8870 C.2   190  GLY190      0.2309
    113  O         21.7360    7.8630    8.3950 O.2   190  GLY190     -0.2863
    114  N         24.5690   10.2030   10.1310 N.3   192  SER192     -0.1217
    115  CA        25.3610   11.4190    9.8750 C.3   192  SER192      0.1889
    116  C         24.4680   12.5680    9.4170 C.2   192  SER192      0.2288
    117  O         23.5170   12.3500    8.6860 O.2   192  SER192     -0.2866
    118  CB        26.3820   11.1700    8.7620 C.3   192  SER192      0.2089
    119  OG        27.2680   10.1060    9.0640 O.3   192  SER192     -0.2183
    120  N         25.2750   14.9630   13.7750 N.3   210  VAL210     -0.1231
    121  CA        25.8710   13.6240   13.8560 C.3   210  VAL210      0.1692
    122  C         27.0100   13.5750   12.8150 C.2   210  VAL210      0.2593
    123  O         26.7930   13.7100   11.6010 O.2   210  VAL210     -0.2718
    124  CB        24.8200   12.5390   13.5550 C.3   210  VAL210      0.0266
    125  CG1       25.4550   11.1490   13.6130 C.3   210  VAL210      0.0020
    126  CG2       23.6670   12.6500   14.5290 C.3   210  VAL210      0.0020
    127  N         28.2170   13.3280   13.2830 N.am  211  SER211     -0.1938
    128  CA        29.3450   13.3720   12.3830 C.3   211  SER211      0.2055
    129  C         30.1790   12.1170   12.2270 C.2   211  SER211      0.2643
    130  O         30.1990   11.5200   11.1660 O.2   211  SER211     -0.2714
    131  CB        30.2260   14.5420   12.8100 C.3   211  SER211      0.2130
    132  OG        31.3860   14.6440   12.0240 O.3   211  SER211     -0.2179
    133  N         30.9110   11.7330   13.2630 N.am  212  TRP212     -0.1959
    134  CA        31.7610   10.5590   13.1780 C.3   212  TRP212      0.1771
    135  C         31.9990    9.8350   14.5040 C.2   212  TRP212      0.2620
    136  O         31.4310   10.1930   15.5410 O.2   212  TRP212     -0.2715
    137  CB        33.0960   10.9250   12.5210 C.3   212  TRP212      0.0590
    138  CG        33.9060   11.8710   13.2970 C.ar  212  TRP212      0.0006
    139  CD1       33.7820   13.2230   13.3380 C.ar  212  TRP212      0.0946
    140  CD2       35.0010   11.5320   14.1490 C.ar  212  TRP212      0.0152
    141  NE1       34.7400   13.7670   14.1640 N.ar  212  TRP212     -0.2442
    142  CE2       35.5010   12.7510   14.6740 C.ar  212  TRP212      0.0810
    143  CE3       35.5990   10.3280   14.5180 C.ar  212  TRP212      0.0012
    144  CZ2       36.5850   12.8030   15.5580 C.ar  212  TRP212      0.0191
    145  CZ3       36.6840   10.3750   15.4060 C.ar  212  TRP212      0.0001
    146  CH2       37.1660   11.6160   15.9130 C.ar  212  TRP212      0.0015
    147  N         32.7780    8.7620   14.4390 N.am  213  GLY213     -0.1940
    148  CA        33.1000    7.9890   15.6160 C.3   213  GLY213      0.2014
    149  C         33.8570    6.7720   15.1440 C.2   213  GLY213      0.2639
    150  O         33.8500    6.4880   13.9530 O.2   213  GLY213     -0.2714
    151  N         34.5180    6.0620   16.0540 N.am  214  GLN214     -0.1963
    152  CA        35.2640    4.8670   15.6700 C.3   214  GLN214      0.1733
    153  C         34.3090    3.6860   15.6900 C.2   214  GLN214      0.2617
    154  O         34.2360    2.9740   16.6890 O.2   214  GLN214     -0.2715
    155  CB        36.4190    4.5830   16.6440 C.3   214  GLN214      0.0408
    156  CG        37.2370    5.7910   17.0660 C.3   214  GLN214      0.0908
    157  CD        38.2090    6.2940   16.0080 C.2   214  GLN214      0.2608
    158  OE1       39.1600    6.9900   16.3320 O.2   214  GLN214     -0.2717
    159  NE2       37.9700    5.9620   14.7490 N.am  214  GLN214     -0.0878
    160  N         33.5840    3.4670   14.5950 N.am  215  GLY215     -0.1940
    161  CA        32.6430    2.3630   14.5520 C.3   215  GLY215      0.2014
    162  C         31.5410    2.6540   15.5410 C.2   215  GLY215      0.2639
    163  O         31.7710    3.2860   16.5640 O.2   215  GLY215     -0.2714
    164  N         30.3400    2.1900   15.2600 N.am  216  CYS216     -0.1967
    165  CA        29.2300    2.4620   16.1460 C.3   216  CYS216      0.1712
    166  C         29.2930    1.7370   17.4660 C.2   216  CYS216      0.2296
    167  O         29.4400    0.5170   17.5040 O.2   216  CYS216     -0.2864
    168  CB        27.9310    2.1150   15.4510 C.3   216  CYS216      0.0983
    169  SG        27.9080    2.6940   13.7360 S.3   216  CYS216     -0.0798
    170  N         30.8180    8.8850   20.4220 N.3   223  GLY223     -0.1225
    171  CA        30.4900    9.4110   19.1050 C.3   223  GLY223      0.1811
    172  C         30.8240   10.9010   19.1360 C.2   223  GLY223      0.2280
    173  O         30.7430   11.5440   20.1890 O.2   223  GLY223     -0.2866
@<TRIPOS>BOND
     1    34    33    2
     2    33    32    1
     3    32    31    1
     4    32    35    1
     5     7     6    1
     6    35    36    1
     7     8     6    1
     8    28    27    2
     9     6     5    1
    10     5     2    1
    11    38    36   ar
    12    36    37   ar
    13    27    26    1
    14     1     2    1
    15     2     3    1
    16    26    29    1
    17    26    25    1
    18    39    40    1
    19    18    17    2
    20     3     9   am
    21     3     4    2
    22    29    30    1
    23    40    41    1
    24    25    17   am
    25    17    16    1
    26     9    10    1
    27    16    15    1
    28    16    19    1
    29    41    43   am
    30    41    42    2
    31    13    10    1
    32    13    14    1
    33    30    14    1
    34    10    11    1
    35    12    11    2
    36    43    44    1
    37    19    20    1
    38    49    47    1
    39    22    20   ar
    40    22    24   ar
    41    20    21   ar
    42    44    47    1
    43    44    45    1
    44    48    47    1
    45    24    23   ar
    46    46    45    2
    47    64    62   ar
    48    45    50   am
    49    21    23   ar
    50    73    71   am
    51   111   110    1
    52   111   112    1
    53   113   112    2
    54    62    63   ar
    55    62    61    1
    56   110   103   am
    57   117   116    2
    58   118   119    1
    59   118   115    1
    60    50    51    1
    61    58    59    1
    62    58    61    1
    63    58    57    1
    64    71    70    1
    65    71    72    2
    66    59    60    2
    67   107   106    1
    68   107   108    1
    69   105   106    1
    70   105   102    1
    71   116   115    1
    72    70    69    1
    73   103   104    2
    74   103   102    1
    75   115   114    1
    76   102   101    1
    77    51    52    1
    78    51    54    1
    79   108   109    1
    80    52    53    2
    81    65    66    1
    82    69    66    1
    83   130   129    2
    84    66    67    1
    85    54    55    1
    86    54    56    1
    87   101    97   am
    88   123   122    2
    89    98    97    2
    90   132   131    1
    91   129   128    1
    92   129   133   am
    93    97    96    1
    94   128   131    1
    95   128   127    1
    96   137   134    1
    97   137   138    1
    98    67    68    2
    99   122   127   am
   100   122   121    1
   101   134   133    1
   102   134   135    1
   103   100   169    1
   104   100    99    1
   105    78    79    1
   106    78    75    1
   107   138   139   ar
   108   138   140   ar
   109   139   141   ar
   110    79    80    1
   111   124   125    1
   112   124   121    1
   113   124   126    1
   114    96    99    1
   115    96    95    1
   116   169   168    1
   117   120   121    1
   118    80    74    1
   119   150   149    2
   120   140   143   ar
   121   140   142   ar
   122   141   142   ar
   123    75    74    1
   124    75    76    1
   125   147   135   am
   126   147   148    1
   127   135   136    2
   128   143   145   ar
   129    95    91   am
   130   161   160    1
   131   161   162    1
   132   160   153   am
   133   142   144   ar
   134   159   157   am
   135   149   148    1
   136   149   151   am
   137   164   162   am
   138   164   165    1
   139   145   146   ar
   140   168   165    1
   141   162   163    2
   142   144   146   ar
   143    76    77    2
   144   152   153    1
   145   152   151    1
   146   152   155    1
   147   153   154    2
   148    91    92    2
   149    91    90    1
   150   157   158    2
   151   157   156    1
   152   165   166    1
   153    93    94    1
   154    93    90    1
   155   155   156    1
   156    90    89    1
   157   166   167    2
   158    89    83   am
   159    88    86   ar
   160    84    83    2
   161    83    82    1
   162    86    87   ar
   163    86    85    1
   164   171   172    1
   165   171   170    1
   166   172   173    2
   167    85    82    1
   168    82    81    1
