@<TRIPOS>MOLECULE
tmp/2aesB00.pdb
 137 137 0 0 0
SMALL
GASTEIGER

@<TRIPOS>ATOM
      1  N         52.6870   31.1560   78.5520 N.3   149  LYS149     -0.1231
      2  CA        53.4000   30.9690   77.2900 C.3   149  LYS149      0.1693
      3  C         54.9120   30.8720   77.4360 C.2   149  LYS149      0.2592
      4  O         55.6150   30.5710   76.4720 O.2   149  LYS149     -0.2718
      5  CB        53.0440   32.0680   76.2760 C.3   149  LYS149      0.0285
      6  CG        53.5120   33.4720   76.5990 C.3   149  LYS149      0.0035
      7  CD        53.2640   34.3850   75.3830 C.3   149  LYS149      0.0206
      8  CE        53.6820   35.8190   75.6610 C.3   149  LYS149      0.1093
      9  NZ        53.2930   36.7880   74.5870 N.3   149  LYS149     -0.1314
     10  N         55.4130   31.1220   78.6410 N.am  150  PHE150     -0.1976
     11  CA        56.8390   31.0170   78.9010 C.3   150  PHE150      0.1639
     12  C         57.0820   29.9230   79.9460 C.2   150  PHE150      0.2290
     13  O         58.0980   29.9350   80.6510 O.2   150  PHE150     -0.2864
     14  CB        57.3890   32.3460   79.4080 C.3   150  PHE150      0.0560
     15  CG        57.3660   33.4490   78.3830 C.ar  150  PHE150     -0.0200
     16  CD1       56.9350   34.7320   78.7330 C.ar  150  PHE150     -0.0042
     17  CD2       57.8130   33.2230   77.0830 C.ar  150  PHE150     -0.0042
     18  CE1       56.9500   35.7770   77.8110 C.ar  150  PHE150     -0.0003
     19  CE2       57.8350   34.2660   76.1490 C.ar  150  PHE150     -0.0003
     20  CZ        57.3990   35.5490   76.5230 C.ar  150  PHE150     -0.0000
     21  N         61.0960   34.3790   80.7810 N.3   155  PRO155     -0.2102
     22  CA        61.8410   33.8070   79.6550 C.3   155  PRO155      0.1504
     23  C         63.3440   34.1060   79.8110 C.2   155  PRO155      0.2575
     24  O         64.1900   33.3860   79.2970 O.2   155  PRO155     -0.2718
     25  CB        61.2000   34.4820   78.4400 C.3   155  PRO155      0.0282
     26  CG        60.7740   35.8100   78.9750 C.3   155  PRO155      0.0208
     27  CD        60.2080   35.4710   80.3420 C.3   155  PRO155      0.0893
     28  N         63.6630   35.1960   80.5010 N.am  156  TYR156     -0.1977
     29  CA        65.0520   35.5710   80.8060 C.3   156  TYR156      0.1639
     30  C         64.9160   36.5530   81.9540 C.2   156  TYR156      0.2290
     31  O         63.9080   37.2570   82.0400 O.2   156  TYR156     -0.2864
     32  CB        65.8120   36.1490   79.5850 C.3   156  TYR156      0.0560
     33  CG        65.1470   37.2710   78.8140 C.ar  156  TYR156     -0.0198
     34  CD1       65.4690   38.6110   79.0620 C.ar  156  TYR156     -0.0009
     35  CD2       64.2230   36.9860   77.8050 C.ar  156  TYR156     -0.0009
     36  CE1       64.8810   39.6430   78.3120 C.ar  156  TYR156      0.0417
     37  CE2       63.6370   37.9970   77.0590 C.ar  156  TYR156      0.0417
     38  CZ        63.9630   39.3150   77.3100 C.ar  156  TYR156      0.1957
     39  OH        63.3640   40.2900   76.5550 O.3   156  TYR156     -0.2866
     40  N         63.7230   40.1740   81.5070 N.3   159  TYR159     -0.1241
     41  CA        62.4630   40.3490   80.7730 C.3   159  TYR159      0.1605
     42  C         61.5360   41.2990   81.5500 C.2   159  TYR159      0.2264
     43  O         61.3000   41.1160   82.7500 O.2   159  TYR159     -0.2867
     44  CB        61.7820   39.0020   80.5720 C.3   159  TYR159      0.0534
     45  CG        60.4320   39.0970   79.8890 C.ar  159  TYR159     -0.0201
     46  CD1       60.3150   39.4880   78.5510 C.ar  159  TYR159     -0.0009
     47  CD2       59.2720   38.8150   80.5980 C.ar  159  TYR159     -0.0009
     48  CE1       59.0380   39.5970   77.9380 C.ar  159  TYR159      0.0417
     49  CE2       58.0150   38.9180   80.0110 C.ar  159  TYR159      0.0417
     50  CZ        57.9000   39.3070   78.6960 C.ar  159  TYR159      0.1957
     51  OH        56.6310   39.4070   78.1830 O.3   159  TYR159     -0.2866
     52  N         58.5520   42.5340   79.8310 N.3   161  GLY161     -0.1225
     53  CA        57.4000   42.7130   78.9650 C.3   161  GLY161      0.1811
     54  C         56.0860   42.2410   79.5640 C.2   161  GLY161      0.2280
     55  O         56.0440   41.7040   80.6810 O.2   161  GLY161     -0.2866
     56  N         57.1670   44.3610   66.0500 N.3   184  TRP184     -0.1227
     57  CA        57.3710   43.5660   67.2470 C.3   184  TRP184      0.1737
     58  C         58.7890   43.4840   67.8160 C.2   184  TRP184      0.2596
     59  O         59.7710   43.3790   67.0750 O.2   184  TRP184     -0.2718
     60  CB        56.8830   42.1390   66.9630 C.3   184  TRP184      0.0564
     61  CG        56.8950   41.2150   68.1420 C.ar  184  TRP184      0.0003
     62  CD1       55.8600   40.9540   68.9900 C.ar  184  TRP184      0.0946
     63  CD2       58.0040   40.4350   68.6060 C.ar  184  TRP184      0.0152
     64  NE1       56.2530   40.0570   69.9540 N.ar  184  TRP184     -0.2442
     65  CE2       57.5650   39.7210   69.7420 C.ar  184  TRP184      0.0810
     66  CE3       59.3320   40.2720   68.1720 C.ar  184  TRP184      0.0012
     67  CZ2       58.4030   38.8540   70.4540 C.ar  184  TRP184      0.0191
     68  CZ3       60.1660   39.4120   68.8790 C.ar  184  TRP184      0.0001
     69  CH2       59.6980   38.7130   70.0080 C.ar  184  TRP184      0.0015
     70  N         58.8790   43.5510   69.1380 N.am  185  GLY185     -0.1942
     71  CA        60.1540   43.3520   69.8100 C.3   185  GLY185      0.2014
     72  C         61.1240   44.4190   70.2410 C.2   185  GLY185      0.2639
     73  O         61.2670   45.4660   69.6110 O.2   185  GLY185     -0.2714
     74  N         61.8010   44.1050   71.3450 N.am  186  GLY186     -0.1939
     75  CA        62.8320   44.9560   71.9150 C.3   186  GLY186      0.2014
     76  C         62.4640   46.1930   72.7080 C.2   186  GLY186      0.2639
     77  O         63.2580   46.6290   73.5530 O.2   186  GLY186     -0.2714
     78  N         61.2830   46.7700   72.4760 N.am  187  GLU187     -0.1963
     79  CA        60.9460   47.9970   73.1960 C.3   187  GLU187      0.1733
     80  C         60.8390   47.7640   74.7050 C.2   187  GLU187      0.2616
     81  O         61.0980   48.6740   75.4950 O.2   187  GLU187     -0.2715
     82  CB        59.6450   48.6150   72.6470 C.3   187  GLU187      0.0429
     83  CG        58.3580   48.1420   73.2870 C.3   187  GLU187      0.1163
     84  CD        58.0130   46.6910   72.9990 C.2   187  GLU187      0.3649
     85  OE1       57.1820   46.1430   73.7520 O.co2 187  GLU187     -0.2457
     86  OE2       58.5460   46.1000   72.0370 O.co2 187  GLU187     -0.2457
     87  N         60.4460   46.5550   75.1070 N.am  188  ASP188     -0.1957
     88  CA        60.3470   46.2620   76.5280 C.3   188  ASP188      0.1840
     89  C         61.7660   46.1430   77.1050 C.2   188  ASP188      0.2622
     90  O         62.0160   46.5340   78.2570 O.2   188  ASP188     -0.2715
     91  CB        59.5060   44.9860   76.7740 C.3   188  ASP188      0.1450
     92  CG        59.9090   43.8160   75.8760 C.2   188  ASP188      0.3671
     93  OD1       60.4680   44.0470   74.7790 O.co2 188  ASP188     -0.2456
     94  OD2       59.6440   42.6570   76.2650 O.co2 188  ASP188     -0.2456
     95  N         62.6960   45.6200   76.3070 N.am  189  ASP189     -0.1971
     96  CA        64.0910   45.5010   76.7580 C.3   189  ASP189      0.1709
     97  C         64.6970   46.8960   76.8840 C.2   189  ASP189      0.2293
     98  O         65.4800   47.1700   77.7980 O.2   189  ASP189     -0.2864
     99  CB        64.9240   44.6910   75.7680 C.3   189  ASP189      0.1436
    100  CG        64.5270   43.2440   75.7360 C.2   189  ASP189      0.3671
    101  OD1       64.1550   42.6930   76.7990 O.co2 189  ASP189     -0.2456
    102  OD2       64.6020   42.6520   74.6520 O.co2 189  ASP189     -0.2456
    103  N         65.6740   46.0090   66.0290 N.3   229  ARG229     -0.1231
    104  CA        65.5550   45.9670   67.4820 C.3   229  ARG229      0.1694
    105  C         66.8140   45.6540   68.2760 C.2   229  ARG229      0.2592
    106  O         67.0320   46.2490   69.3300 O.2   229  ARG229     -0.2718
    107  CB        64.4360   45.0130   67.8930 C.3   229  ARG229      0.0321
    108  CG        64.6740   43.5460   67.6180 C.3   229  ARG229      0.0489
    109  CD        63.4450   42.7640   68.0410 C.3   229  ARG229      0.2205
    110  NE        63.5610   41.3160   67.8560 N.pl3 229  ARG229     -0.0865
    111  CZ        63.5110   40.6840   66.6870 C.cat 229  ARG229      0.5346
    112  NH1       63.3530   41.3640   65.5580 N.pl3 229  ARG229      0.1354
    113  NH2       63.5930   39.3580   66.6540 N.pl3 229  ARG229      0.1354
    114  N         67.6410   44.7370   67.7810 N.am  230  PHE230     -0.1976
    115  CA        68.8590   44.3860   68.5050 C.3   230  PHE230      0.1639
    116  C         69.7930   45.5750   68.5300 C.2   230  PHE230      0.2290
    117  O         70.4370   45.8430   69.5340 O.2   230  PHE230     -0.2864
    118  CB        69.5340   43.1740   67.8690 C.3   230  PHE230      0.0560
    119  CG        68.6440   41.9690   67.8020 C.ar  230  PHE230     -0.0200
    120  CD1       68.1100   41.5490   66.5890 C.ar  230  PHE230     -0.0042
    121  CD2       68.2910   41.2890   68.9670 C.ar  230  PHE230     -0.0042
    122  CE1       67.2340   40.4700   66.5370 C.ar  230  PHE230     -0.0003
    123  CE2       67.4160   40.2120   68.9260 C.ar  230  PHE230     -0.0003
    124  CZ        66.8860   39.8000   67.7110 C.ar  230  PHE230     -0.0000
    125  N         68.2450   48.3100   71.0980 N.3   233  ILE233     -0.1231
    126  CA        68.3690   48.0690   72.5360 C.3   233  ILE233      0.1692
    127  C         69.8290   48.1630   72.9890 C.2   233  ILE233      0.2591
    128  O         70.1070   48.3150   74.1760 O.2   233  ILE233     -0.2718
    129  CB        67.7890   46.6950   72.9520 C.3   233  ILE233      0.0266
    130  CG1       68.5500   45.5610   72.2580 C.3   233  ILE233      0.0019
    131  CG2       66.2820   46.6360   72.6100 C.3   233  ILE233      0.0020
    132  CD1       68.2760   44.2070   72.8820 C.3   233  ILE233      0.0001
    133  N         70.7550   48.0900   72.0370 N.am  234  ALA234     -0.1980
    134  CA        72.1750   48.1880   72.3550 C.3   234  ALA234      0.1597
    135  C         72.5820   49.6500   72.5480 C.2   234  ALA234      0.2287
    136  O         73.6580   49.9170   73.0730 O.2   234  ALA234     -0.2864
    137  CB        73.0190   47.5390   71.2420 C.3   234  ALA234      0.0319
@<TRIPOS>BOND
     1   112   111    1
     2   103   104    1
     3    56    57    1
     4   122   120   ar
     5   122   124   ar
     6   120   119   ar
     7   113   111    1
     8   111   110    2
     9    60    57    1
    10    60    61    1
    11    59    58    2
    12    57    58    1
    13   104   107    1
    14   104   105    1
    15   108   107    1
    16   108   109    1
    17   124   123   ar
    18   114   105   am
    19   114   115    1
    20   119   118    1
    21   119   121   ar
    22    58    70   am
    23   110   109    1
    24   118   115    1
    25    61    63   ar
    26    61    62   ar
    27    66    63   ar
    28    66    68   ar
    29   105   106    2
    30   115   116    1
    31   116   117    2
    32    63    65   ar
    33    68    69   ar
    34   123   121   ar
    35    62    64   ar
    36    70    71    1
    37    73    72    2
    38    65    64   ar
    39    65    67   ar
    40    71    72    1
    41    69    67   ar
    42    72    74   am
    43   125   126    1
    44   137   134    1
    45    74    75    1
    46    75    76    1
    47   133   134    1
    48   133   127   am
    49    86    84   ar
    50   130   132    1
    51   130   129    1
    52   134   135    1
    53    78    76   am
    54    78    79    1
    55   126   129    1
    56   126   127    1
    57   135   136    2
    58   131   129    1
    59    82    79    1
    60    82    83    1
    61    76    77    2
    62   127   128    2
    63    84    83    1
    64    84    85   ar
    65    79    80    1
    66     9     8    1
    67   102   100   ar
    68    80    87   am
    69    80    81    2
    70    93    92   ar
    71    87    88    1
    72     7     8    1
    73     7     6    1
    74   100    99    1
    75   100   101   ar
    76    99    96    1
    77    92    94   ar
    78    92    91    1
    79    19    20   ar
    80    19    17   ar
    81     5     6    1
    82     5     2    1
    83    95    96    1
    84    95    89   am
    85     4     3    2
    86    20    18   ar
    87    88    91    1
    88    88    89    1
    89    39    38    1
    90    96    97    1
    91    97    98    2
    92    37    38   ar
    93    37    35   ar
    94    17    15   ar
    95    89    90    2
    96     2     3    1
    97     2     1    1
    98    38    36   ar
    99     3    10   am
   100    35    33   ar
   101    18    16   ar
   102    48    46   ar
   103    48    50   ar
   104    51    50    1
   105    36    34   ar
   106    15    16   ar
   107    15    14    1
   108    25    26    1
   109    25    22    1
   110    46    45   ar
   111    10    11    1
   112    50    49   ar
   113    33    34   ar
   114    33    32    1
   115    11    14    1
   116    11    12    1
   117    53    54    1
   118    53    52    1
   119    26    27    1
   120    24    23    2
   121    54    55    2
   122    32    29    1
   123    22    23    1
   124    22    21    1
   125    23    28   am
   126    45    44    1
   127    45    47   ar
   128    12    13    2
   129    49    47   ar
   130    27    21    1
   131    28    29    1
   132    44    41    1
   133    41    40    1
   134    41    42    1
   135    29    30    1
   136    42    43    2
   137    30    31    2
