@<TRIPOS>MOLECULE
tmp/2aexA00.pdb
 103 97 0 0 0
SMALL
GASTEIGER

@<TRIPOS>ATOM
      1  N         21.4300   52.3330   27.3280 N.3   125  VAL125     -0.1231
      2  CA        21.1800   52.2920   28.7510 C.3   125  VAL125      0.1692
      3  C         20.0680   53.2880   29.0380 C.2   125  VAL125      0.2592
      4  O         19.9660   54.3480   28.3870 O.2   125  VAL125     -0.2718
      5  CB        22.4370   52.6330   29.5760 C.3   125  VAL125      0.0266
      6  CG1       23.0010   54.0170   29.2740 C.3   125  VAL125      0.0020
      7  CG2       22.1760   52.4760   31.0560 C.3   125  VAL125      0.0020
      8  N         19.2480   52.9770   30.0240 N.am  126  SER126     -0.1952
      9  CA        18.1900   53.8820   30.4150 C.3   126  SER126      0.1924
     10  C         17.8560   53.6100   31.8560 C.2   126  SER126      0.2314
     11  O         17.8590   52.4650   32.2920 O.2   126  SER126     -0.2863
     12  CB        16.9720   53.6690   29.5430 C.3   126  SER126      0.2116
     13  OG        16.4370   52.3920   29.7800 O.3   126  SER126     -0.2180
     14  N         16.2410   60.8910   35.4710 N.3   140  HIS140     -0.1241
     15  CA        16.1230   60.0230   34.3130 C.3   140  HIS140      0.1621
     16  C         17.3270   60.2660   33.4230 C.2   140  HIS140      0.2264
     17  O         17.7260   61.4030   33.2210 O.2   140  HIS140     -0.2867
     18  CB        14.8420   60.3310   33.5640 C.3   140  HIS140      0.0745
     19  CG        14.8550   59.8230   32.1700 C.ar  140  HIS140      0.0817
     20  ND1       15.1380   60.6310   31.0800 N.ar  140  HIS140     -0.2268
     21  CD2       14.7280   58.5640   31.6840 C.ar  140  HIS140      0.1154
     22  CE1       15.1250   59.8940   29.9830 C.ar  140  HIS140      0.1986
     23  NE2       14.8860   58.6390   30.3200 N.ar  140  HIS140     -0.2212
     24  N         19.3820   58.4150   29.6940 N.3   142  ASN142     -0.1240
     25  CA        19.4320   57.3910   28.6780 C.3   142  ASN142      0.1653
     26  C         20.5420   57.7650   27.7090 C.2   142  ASN142      0.2266
     27  O         20.7650   58.9490   27.4440 O.2   142  ASN142     -0.2867
     28  CB        18.0800   57.3340   27.9670 C.3   142  ASN142      0.1155
     29  CG        17.7790   58.5850   27.2490 C.2   142  ASN142      0.2627
     30  OD1       17.5900   59.6450   27.8580 O.2   142  ASN142     -0.2716
     31  ND2       17.7930   58.5100   25.9390 N.am  142  ASN142     -0.0877
     32  N         22.1270   56.0110   23.9360 N.3   144  ARG144     -0.1245
     33  CA        21.9000   54.9410   22.9730 C.3   144  ARG144      0.1563
     34  C         22.5880   55.1980   21.6440 C.2   144  ARG144      0.2260
     35  O         22.9710   56.3210   21.3400 O.2   144  ARG144     -0.2867
     36  CB        20.3990   54.7470   22.7570 C.3   144  ARG144      0.0307
     37  CG        19.7000   55.9660   22.2140 C.3   144  ARG144      0.0489
     38  CD        18.2100   55.7580   22.0770 C.3   144  ARG144      0.2205
     39  NE        17.5740   56.8960   21.4330 N.pl3 144  ARG144     -0.0865
     40  CZ        17.3370   58.0720   22.0090 C.cat 144  ARG144      0.5346
     41  NH1       16.7500   59.0340   21.3110 N.pl3 144  ARG144      0.1354
     42  NH2       17.6710   58.2960   23.2710 N.pl3 144  ARG144      0.1354
     43  N         11.2180   52.5560   20.1840 N.3   288  GLY288     -0.1210
     44  CA        11.7750   53.5410   21.1230 C.3   288  GLY288      0.1956
     45  C         13.2610   53.4130   21.4240 C.2   288  GLY288      0.2611
     46  O         13.8940   54.3860   21.8530 O.2   288  GLY288     -0.2717
     47  N         13.8360   52.2360   21.1780 N.am  289  LEU289     -0.1979
     48  CA        15.2750   52.0360   21.4200 C.3   289  LEU289      0.1596
     49  C         16.1410   52.8290   20.4400 C.2   289  LEU289      0.2287
     50  O         17.3470   52.9610   20.6580 O.2   289  LEU289     -0.2864
     51  CB        15.6650   50.5520   21.3380 C.3   289  LEU289      0.0297
     52  CG        16.6800   49.9760   22.3520 C.3   289  LEU289      0.0022
     53  CD1       17.4590   48.8050   21.7410 C.3   289  LEU289      0.0001
     54  CD2       17.6380   50.9680   22.9960 C.3   289  LEU289      0.0001
     55  N         14.6780   55.9040   18.6360 N.3   291  THR291     -0.1204
     56  CA        13.9970   57.1520   18.3010 C.3   291  THR291      0.1979
     57  C         13.4430   57.7660   19.5890 C.2   291  THR291      0.2460
     58  O         13.3360   57.0580   20.5950 O.2   291  THR291     -0.2732
     59  CB        12.8590   56.8850   17.2840 C.3   291  THR291      0.1783
     60  OG1       12.3820   58.1250   16.7280 O.3   291  THR291     -0.2211
     61  CG2       11.7160   56.1320   17.9360 C.3   291  THR291      0.0376
     62  N         13.0940   59.0710   19.5800 N.am  292  PRO292     -0.2717
     63  CA        12.4150   59.5740   20.7720 C.3   292  PRO292      0.1536
     64  C         11.1050   58.8370   21.0010 C.2   292  PRO292      0.2599
     65  O         10.4350   58.4300   20.0530 O.2   292  PRO292     -0.2715
     66  CB        12.1440   61.0480   20.4440 C.3   292  PRO292      0.0310
     67  CG        13.1580   61.3970   19.4080 C.3   292  PRO292      0.0237
     68  CD        13.2720   60.1380   18.5820 C.3   292  PRO292      0.0939
     69  N         10.7530   58.6650   22.2620 N.am  293  GLY293     -0.1941
     70  CA         9.6120   57.8350   22.6310 C.3   293  GLY293      0.2014
     71  C         10.1350   56.6020   23.3330 C.2   293  GLY293      0.2640
     72  O         11.1510   56.0450   22.9370 O.2   293  GLY293     -0.2714
     73  N          9.4330   56.1970   24.3830 N.am  294  SER294     -0.1935
     74  CA         9.8120   55.0710   25.2220 C.3   294  SER294      0.2055
     75  C          9.1470   53.7660   24.7830 C.2   294  SER294      0.2642
     76  O          7.9700   53.7640   24.4360 O.2   294  SER294     -0.2714
     77  CB         9.3350   55.3550   26.6480 C.3   294  SER294      0.2130
     78  OG         9.9210   56.5260   27.1840 O.3   294  SER294     -0.2179
     79  N          9.8790   52.6580   24.8670 N.am  295  ARG295     -0.1977
     80  CA         9.2670   51.3190   24.8060 C.3   295  ARG295      0.1597
     81  C          8.4800   51.0270   26.0910 C.2   295  ARG295      0.2287
     82  O          8.7590   51.6060   27.1410 O.2   295  ARG295     -0.2864
     83  CB        10.3520   50.2570   24.5800 C.3   295  ARG295      0.0334
     84  CG        11.1120   50.4520   23.2420 C.3   295  ARG295      0.0492
     85  CD        12.2090   49.4240   23.0550 C.3   295  ARG295      0.2205
     86  NE        13.1730   49.5680   24.1420 N.pl3 295  ARG295     -0.0865
     87  CZ        13.9690   48.6110   24.6010 C.cat 295  ARG295      0.5346
     88  NH1       13.9720   47.3950   24.0590 N.pl3 295  ARG295      0.1354
     89  NH2       14.7760   48.8800   25.6150 N.pl3 295  ARG295      0.1354
     90  N         10.4430   50.3090   29.1480 N.3   298  SER298     -0.1217
     91  CA        11.0470   51.4920   29.7450 C.3   298  SER298      0.1889
     92  C         10.0250   52.2330   30.5970 C.2   298  SER298      0.2288
     93  O         10.3270   52.5780   31.7490 O.2   298  SER298     -0.2866
     94  CB        11.6420   52.4220   28.6830 C.3   298  SER298      0.2089
     95  OG        10.6540   53.2370   28.1010 O.3   298  SER298     -0.2183
     96  N          9.5120   50.5720   33.8090 N.3   301  MET301     -0.1245
     97  CA        10.6580   50.6360   34.7120 C.3   301  MET301      0.1570
     98  C         10.6710   51.9980   35.3920 C.2   301  MET301      0.2261
     99  O         11.1310   52.1320   36.5330 O.2   301  MET301     -0.2867
    100  CB        11.9670   50.3640   33.9630 C.3   301  MET301      0.0387
    101  CG        13.2200   50.6190   34.7870 C.3   301  MET301      0.0595
    102  SD        13.8120   52.3280   34.7130 S.3   301  MET301     -0.1393
    103  CE        14.5990   52.3740   33.1160 C.3   301  MET301      0.0692
@<TRIPOS>BOND
     1    60    59    1
     2    59    61    1
     3    59    56    1
     4    56    55    1
     5    56    57    1
     6    68    67    1
     7    68    62    1
     8    67    66    1
     9    62    57   am
    10    62    63    1
    11    57    58    2
    12    65    64    2
    13    43    44    1
    14    49    50    2
    15    49    48    1
    16    66    63    1
    17    63    64    1
    18    64    69   am
    19    44    45    1
    20    47    48    1
    21    47    45   am
    22    41    40    1
    23    51    48    1
    24    51    52    1
    25    35    34    2
    26    45    46    2
    27    39    40    2
    28    39    38    1
    29    34    33    1
    30    53    52    1
    31    40    42    1
    32    38    37    1
    33    37    36    1
    34    69    70    1
    35    52    54    1
    36    70    71    1
    37    36    33    1
    38    72    71    2
    39    33    32    1
    40    85    84    1
    41    85    86    1
    42    84    83    1
    43    71    73   am
    44    88    87    1
    45    86    87    2
    46    73    74    1
    47    76    75    2
    48    83    80    1
    49    87    89    1
    50    75    79   am
    51    75    74    1
    52    80    79    1
    53    80    81    1
    54    74    77    1
    55    31    29   am
    56    81    82    2
    57    77    78    1
    58    29    30    2
    59    29    28    1
    60     1     2    1
    61    27    26    2
    62    26    25    1
    63    28    25    1
    64    95    94    1
    65     4     3    2
    66    25    24    1
    67    94    91    1
    68     2     3    1
    69     2     5    1
    70     3     8   am
    71    90    91    1
    72     6     5    1
    73    12    13    1
    74    12     9    1
    75     5     7    1
    76    91    92    1
    77    22    23   ar
    78    22    20   ar
    79     8     9    1
    80    23    21   ar
    81     9    10    1
    82    92    93    2
    83    20    19   ar
    84    21    19   ar
    85    10    11    2
    86    19    18    1
    87   103   102    1
    88    17    16    2
    89    16    15    1
    90    18    15    1
    91    96    97    1
    92   100    97    1
    93   100   101    1
    94    15    14    1
    95    97    98    1
    96   102   101    1
    97    98    99    2
