@<TRIPOS>MOLECULE
tmp/2aeyA02.pdb
 129 126 0 0 0
SMALL
GASTEIGER

@<TRIPOS>ATOM
      1  N         13.3210   66.5080   -8.0430 N.3    20  ASN20      -0.1225
      2  CA        12.9060   66.1840   -6.6800 C.3    20  ASN20       0.1785
      3  C         11.9050   65.0310   -6.6440 C.2    20  ASN20       0.2597
      4  O         12.1590   63.9710   -7.2200 O.2    20  ASN20      -0.2718
      5  CB        12.3850   67.4280   -5.9150 C.3    20  ASN20       0.1169
      6  CG        11.3270   68.2110   -6.6680 C.2    20  ASN20       0.2627
      7  OD1       11.3230   68.2390   -7.8880 O.2    20  ASN20      -0.2716
      8  ND2       10.4430   68.8840   -5.9320 N.am   20  ASN20      -0.0877
      9  N         10.7820   65.2280   -5.9620 N.am   21  ASP21      -0.1974
     10  CA         9.7410   64.2020   -5.8350 C.3    21  ASP21       0.1709
     11  C          9.6770   63.1900   -6.9920 C.2    21  ASP21       0.2293
     12  O          9.4710   63.5700   -8.1450 O.2    21  ASP21      -0.2864
     13  CB         8.3700   64.8780   -5.7040 C.3    21  ASP21       0.1436
     14  CG         8.2870   65.8340   -4.5230 C.2    21  ASP21       0.3671
     15  OD1        9.2190   66.6350   -4.3140 O.co2  21  ASP21      -0.2456
     16  OD2        7.2680   65.8010   -3.8120 O.co2  21  ASP21      -0.2456
     17  N          9.7240   65.2600  -10.6180 N.3    37  GLN37      -0.1245
     18  CA         9.4730   66.7000  -10.6890 C.3    37  GLN37       0.1566
     19  C         10.7260   67.3000  -11.3160 C.2    37  GLN37       0.2260
     20  O         11.8410   67.0650  -10.8520 O.2    37  GLN37      -0.2867
     21  CB         9.2370   67.2820   -9.2940 C.3    37  GLN37       0.0367
     22  CG         7.9160   66.8800   -8.6410 C.3    37  GLN37       0.0905
     23  CD         6.7070   67.4520   -9.3510 C.2    37  GLN37       0.2608
     24  OE1        6.5200   68.6630   -9.4070 O.2    37  GLN37      -0.2717
     25  NE2        5.8790   66.5790   -9.8970 N.am   37  GLN37      -0.0878
     26  N         14.8880   74.9380   -7.6570 N.3    45  PHE45      -0.1241
     27  CA        13.4460   74.9000   -7.7860 C.3    45  PHE45       0.1605
     28  C         13.0150   76.1480   -8.5440 C.2    45  PHE45       0.2264
     29  O         13.6970   77.1740   -8.4830 O.2    45  PHE45      -0.2867
     30  CB        12.7900   74.8860   -6.4240 C.3    45  PHE45       0.0534
     31  CG        11.4140   74.3310   -6.4410 C.ar   45  PHE45      -0.0203
     32  CD1       11.2110   72.9690   -6.5740 C.ar   45  PHE45      -0.0042
     33  CD2       10.3180   75.1650   -6.3220 C.ar   45  PHE45      -0.0042
     34  CE1        9.9300   72.4400   -6.5840 C.ar   45  PHE45      -0.0003
     35  CE2        9.0320   74.6500   -6.3310 C.ar   45  PHE45      -0.0003
     36  CZ         8.8350   73.2850   -6.4620 C.ar   45  PHE45      -0.0000
     37  N          7.3440   73.7210  -13.1350 N.3    49  ILE49      -0.1245
     38  CA         7.7930   72.3510  -12.9180 C.3    49  ILE49       0.1561
     39  C          7.0350   71.3310  -13.7530 C.2    49  ILE49       0.2260
     40  O          5.8160   71.2220  -13.6510 O.2    49  ILE49      -0.2867
     41  CB         7.6170   71.9490  -11.4660 C.3    49  ILE49       0.0252
     42  CG1        8.3510   72.9380  -10.5660 C.3    49  ILE49       0.0019
     43  CG2        8.1070   70.5300  -11.2730 C.3    49  ILE49       0.0019
     44  CD1        9.8460   72.9910  -10.8070 C.3    49  ILE49       0.0001
     45  N          2.6090   69.5660  -10.6260 N.3    81  TRP81      -0.1227
     46  CA         3.2510   69.0100   -9.4620 C.3    81  TRP81       0.1737
     47  C          3.0080   67.5190   -9.2830 C.2    81  TRP81       0.2596
     48  O          2.3290   66.8890  -10.0860 O.2    81  TRP81      -0.2718
     49  CB         2.8570   69.8160   -8.2280 C.3    81  TRP81       0.0564
     50  CG         3.5160   71.1850   -8.2160 C.ar   81  TRP81       0.0003
     51  CD1        4.7700   71.4940   -8.6790 C.ar   81  TRP81       0.0946
     52  CD2        3.0110   72.3890   -7.6120 C.ar   81  TRP81       0.0152
     53  NE1        5.0760   72.8070   -8.3900 N.ar   81  TRP81      -0.2442
     54  CE2        4.0160   73.3760   -7.7350 C.ar   81  TRP81       0.0810
     55  CE3        1.8100   72.7260   -6.9750 C.ar   81  TRP81       0.0012
     56  CZ2        3.8560   74.6730   -7.2400 C.ar   81  TRP81       0.0191
     57  CZ3        1.6530   74.0230   -6.4820 C.ar   81  TRP81       0.0001
     58  CH2        2.6730   74.9760   -6.6180 C.ar   81  TRP81       0.0015
     59  N          3.5880   66.9660   -8.2270 N.am   82  SER82      -0.1952
     60  CA         3.5290   65.5390   -7.9390 C.3    82  SER82       0.1924
     61  C          2.1940   64.8060   -8.0510 C.2    82  SER82       0.2314
     62  O          1.1320   65.4000   -7.8820 O.2    82  SER82      -0.2863
     63  CB         4.1510   65.2960   -6.5700 C.3    82  SER82       0.2116
     64  OG         5.5240   65.6520   -6.5980 O.3    82  SER82      -0.2180
     65  N         -2.6400   68.5970   -1.9600 N.3   145  ARG145     -0.1231
     66  CA        -1.9170   67.9850   -3.0660 C.3   145  ARG145      0.1694
     67  C         -1.3600   66.5800   -2.8630 C.2   145  ARG145      0.2592
     68  O         -1.6010   65.9250   -1.8510 O.2   145  ARG145     -0.2718
     69  CB        -0.7690   68.8940   -3.4680 C.3   145  ARG145      0.0321
     70  CG         0.1690   69.1700   -2.3360 C.3   145  ARG145      0.0489
     71  CD         1.4630   69.8060   -2.8010 C.3   145  ARG145      0.2205
     72  NE         2.2620   70.2060   -1.6520 N.pl3 145  ARG145     -0.0865
     73  CZ         1.8430   71.0630   -0.7250 C.cat 145  ARG145      0.5346
     74  NH1        0.6380   71.6130   -0.8200 N.pl3 145  ARG145      0.1354
     75  NH2        2.6190   71.3510    0.3110 N.pl3 145  ARG145      0.1354
     76  N         -0.6230   66.1340   -3.8730 N.am  146  ASP146     -0.1974
     77  CA         0.0360   64.8380   -3.8930 C.3   146  ASP146      0.1709
     78  C         -0.8420   63.5830   -3.7910 C.2   146  ASP146      0.2293
     79  O         -0.6000   62.7090   -2.9430 O.2   146  ASP146     -0.2864
     80  CB         1.1120   64.8140   -2.8110 C.3   146  ASP146      0.1436
     81  CG         2.0110   66.0330   -2.8640 C.2   146  ASP146      0.3671
     82  OD1        2.2250   66.5860   -3.9600 O.co2 146  ASP146     -0.2456
     83  OD2        2.5220   66.4360   -1.8050 O.co2 146  ASP146     -0.2456
     84  N          2.6560   65.7650    2.8030 N.3   200  GLU200     -0.1231
     85  CA         3.0100   65.6470    1.4030 C.3   200  GLU200      0.1699
     86  C          3.2490   64.2340    0.8810 C.2   200  GLU200      0.2592
     87  O          3.7760   63.3720    1.5850 O.2   200  GLU200     -0.2718
     88  CB         4.2330   66.5160    1.1260 C.3   200  GLU200      0.0402
     89  CG         3.9710   67.9910    1.2780 C.3   200  GLU200      0.1161
     90  CD         5.2350   68.8140    1.1860 C.2   200  GLU200      0.3649
     91  OE1        5.1290   70.0460    1.0070 O.co2 200  GLU200     -0.2457
     92  OE2        6.3350   68.2330    1.3000 O.co2 200  GLU200     -0.2457
     93  N          2.8500   64.0170   -0.3690 N.am  201  CYS201     -0.1970
     94  CA         3.0190   62.7420   -1.0380 C.3   201  CYS201      0.1712
     95  C          2.5630   61.5460   -0.2370 C.2   201  CYS201      0.2296
     96  O          3.3110   60.5820   -0.0720 O.2   201  CYS201     -0.2864
     97  CB         4.4740   62.5580   -1.4110 C.3   201  CYS201      0.0983
     98  SG         5.0070   63.7370   -2.5970 S.3   201  CYS201     -0.0798
     99  N         13.2660   61.8750    0.9780 N.3   273  TYR273     -0.1227
    100  CA        11.9710   62.5660    1.0310 C.3   273  TYR273      0.1736
    101  C         11.0810   62.4460   -0.2070 C.2   273  TYR273      0.2595
    102  O         11.5590   62.2470   -1.3250 O.2   273  TYR273     -0.2718
    103  CB        12.1650   64.0570    1.3460 C.3   273  TYR273      0.0548
    104  CG        10.9110   64.7280    1.8660 C.ar  273  TYR273     -0.0200
    105  CD1       10.2900   64.2690    3.0280 C.ar  273  TYR273     -0.0009
    106  CD2       10.3200   65.7900    1.1860 C.ar  273  TYR273     -0.0009
    107  CE1        9.1040   64.8460    3.5030 C.ar  273  TYR273      0.0417
    108  CE2        9.1290   66.3790    1.6560 C.ar  273  TYR273      0.0417
    109  CZ         8.5310   65.8970    2.8160 C.ar  273  TYR273      0.1957
    110  OH         7.3700   66.4560    3.3040 O.3   273  TYR273     -0.2866
    111  N          9.7750   62.5730    0.0200 N.am  274  ALA274     -0.1980
    112  CA         8.7710   62.5150   -1.0320 C.3   274  ALA274      0.1597
    113  C          8.7120   61.1580   -1.6810 C.2   274  ALA274      0.2287
    114  O          8.4480   61.0450   -2.8770 O.2   274  ALA274     -0.2864
    115  CB         9.0560   63.5710   -2.0850 C.3   274  ALA274      0.0319
    116  N         13.2220   60.6960   -3.0820 N.3   291  TRP291     -0.1241
    117  CA        14.0910   61.7970   -3.4420 C.3   291  TRP291      0.1605
    118  C         15.2110   62.0630   -2.4400 C.2   291  TRP291      0.2264
    119  O         14.9910   62.0800   -1.2290 O.2   291  TRP291     -0.2867
    120  CB        13.2350   63.0510   -3.6240 C.3   291  TRP291      0.0550
    121  CG        13.9990   64.3220   -3.8180 C.ar  291  TRP291      0.0003
    122  CD1       15.1590   64.4850   -4.5110 C.ar  291  TRP291      0.0946
    123  CD2       13.6240   65.6210   -3.3530 C.ar  291  TRP291      0.0152
    124  NE1       15.5330   65.8080   -4.5090 N.ar  291  TRP291     -0.2442
    125  CE2       14.6070   66.5250   -3.8040 C.ar  291  TRP291      0.0810
    126  CE3       12.5510   66.1070   -2.5990 C.ar  291  TRP291      0.0012
    127  CZ2       14.5530   67.8840   -3.5300 C.ar  291  TRP291      0.0191
    128  CZ3       12.4920   67.4570   -2.3230 C.ar  291  TRP291      0.0001
    129  CH2       13.4900   68.3350   -2.7880 C.ar  291  TRP291      0.0015
@<TRIPOS>BOND
     1    39    40    2
     2    39    38    1
     3    37    38    1
     4    38    41    1
     5    41    43    1
     6    41    42    1
     7    19    20    2
     8    19    18    1
     9    44    42    1
    10    18    17    1
    11    18    21    1
    12    45    46    1
    13    48    47    2
    14    25    23   am
    15    46    47    1
    16    46    49    1
    17    24    23    2
    18    23    22    1
    19    21    22    1
    20    47    59   am
    21    51    53   ar
    22    51    50   ar
    23    28    29    2
    24    28    27    1
    25    53    54   ar
    26    49    50    1
    27    59    60    1
    28    50    52   ar
    29    12    11    2
    30    61    60    1
    31    61    62    2
    32     1     2    1
    33    60    63    1
    34     7     6    2
    35    27    26    1
    36    27    30    1
    37    54    52   ar
    38    54    56   ar
    39    52    55   ar
    40    56    58   ar
    41     4     3    2
    42    11    10    1
    43    55    57   ar
    44     2     3    1
    45     2     5    1
    46     6     8   am
    47     6     5    1
    48     3     9   am
    49    58    57   ar
    50    64    63    1
    51    34    32   ar
    52    34    36   ar
    53    32    31   ar
    54    36    35   ar
    55    31    30    1
    56    31    33   ar
    57    35    33   ar
    58     9    10    1
    59    10    13    1
    60    13    14    1
    61    14    15   ar
    62    14    16   ar
    63   122   124   ar
    64   122   121   ar
    65   124   125   ar
    66    82    81   ar
    67    77    76    1
    68    77    78    1
    69    77    80    1
    70    76    67   am
    71   121   120    1
    72   121   123   ar
    73   125   127   ar
    74   125   123   ar
    75    78    79    2
    76   120   117    1
    77   127   129   ar
    78    69    66    1
    79    69    70    1
    80   117   116    1
    81   117   118    1
    82   123   126   ar
    83    66    67    1
    84    66    65    1
    85   114   113    2
    86    81    80    1
    87    81    83   ar
    88    67    68    2
    89    71    70    1
    90    71    72    1
    91   129   128   ar
    92   126   128   ar
    93    98    97    1
    94   118   119    2
    95   115   112    1
    96   113   112    1
    97    72    73    2
    98    97    94    1
    99   102   101    2
   100    94    93    1
   101    94    95    1
   102   112   111    1
   103    74    73    1
   104    73    75    1
   105    93    86   am
   106    95    96    2
   107   101   111   am
   108   101   100    1
   109    86    85    1
   110    86    87    2
   111    99   100    1
   112    91    90   ar
   113   100   103    1
   114    88    89    1
   115    88    85    1
   116    90    89    1
   117    90    92   ar
   118   106   108   ar
   119   106   104   ar
   120   103   104    1
   121    85    84    1
   122   108   109   ar
   123   104   105   ar
   124   109   110    1
   125   109   107   ar
   126   105   107   ar
