@<TRIPOS>MOLECULE
tmp/2aezA02.pdb
 152 149 0 0 0
SMALL
GASTEIGER

@<TRIPOS>ATOM
      1  N         18.0220   70.3290  -12.5560 N.3    17  TRP17      -0.1241
      2  CA        17.3500   70.0100  -11.3160 C.3    17  TRP17       0.1605
      3  C         16.3170   68.9220  -11.4160 C.2    17  TRP17       0.2264
      4  O         15.5120   68.9050  -12.3440 O.2    17  TRP17      -0.2867
      5  CB        16.6940   71.2760  -10.7780 C.3    17  TRP17       0.0550
      6  CG        15.7000   71.0600   -9.7000 C.ar   17  TRP17       0.0003
      7  CD1       14.3960   70.6820   -9.8420 C.ar   17  TRP17       0.0946
      8  CD2       15.9190   71.2350   -8.3030 C.ar   17  TRP17       0.0152
      9  NE1       13.7850   70.6180   -8.6120 N.ar   17  TRP17      -0.2442
     10  CE2       14.7010   70.9520   -7.6470 C.ar   17  TRP17       0.0810
     11  CE3       17.0320   71.6040   -7.5340 C.ar   17  TRP17       0.0012
     12  CZ2       14.5610   71.0290   -6.2600 C.ar   17  TRP17       0.0191
     13  CZ3       16.8930   71.6780   -6.1560 C.ar   17  TRP17       0.0001
     14  CH2       15.6660   71.3920   -5.5340 C.ar   17  TRP17       0.0015
     15  N         13.7520   66.5140   -8.6230 N.3    19  ASN19      -0.1225
     16  CA        13.3380   66.2440   -7.2620 C.3    19  ASN19       0.1785
     17  C         12.3230   65.1030   -7.2160 C.2    19  ASN19       0.2597
     18  O         12.5870   64.0370   -7.7640 O.2    19  ASN19      -0.2718
     19  CB        12.8520   67.5230   -6.5210 C.3    19  ASN19       0.1169
     20  CG        11.7310   68.2650   -7.2290 C.2    19  ASN19       0.2627
     21  OD1       11.9090   68.7980   -8.3250 O.2    19  ASN19      -0.2716
     22  ND2       10.5760   68.3310   -6.5820 N.am   19  ASN19      -0.0877
     23  N         11.1850   65.3140   -6.5690 N.am   20  ASP20      -0.1974
     24  CA        10.1560   64.2870   -6.4190 C.3    20  ASP20       0.1709
     25  C          9.9890   63.2410   -7.5190 C.2    20  ASP20       0.2293
     26  O          9.7290   63.5890   -8.6700 O.2    20  ASP20      -0.2864
     27  CB         8.8110   64.9600   -6.2240 C.3    20  ASP20       0.1436
     28  CG         8.7530   65.7770   -4.9680 C.2    20  ASP20       0.3671
     29  OD1        9.7570   66.4450   -4.6430 O.co2  20  ASP20      -0.2456
     30  OD2        7.6930   65.7590   -4.3170 O.co2  20  ASP20      -0.2456
     31  N          9.9810   65.2510  -11.0100 N.3    36  GLN36      -0.1245
     32  CA         9.8600   66.7000  -11.0180 C.3    36  GLN36       0.1566
     33  C         11.1580   67.2310  -11.6370 C.2    36  GLN36       0.2260
     34  O         12.2560   66.9360  -11.1560 O.2    36  GLN36      -0.2867
     35  CB         9.6870   67.1960   -9.5880 C.3    36  GLN36       0.0367
     36  CG         8.3290   66.8630   -9.0300 C.3    36  GLN36       0.0905
     37  CD         7.2460   67.5910   -9.7810 C.2    36  GLN36       0.2608
     38  OE1        6.9940   68.7700   -9.5360 O.2    36  GLN36      -0.2717
     39  NE2        6.6180   66.9040  -10.7290 N.am   36  GLN36      -0.0878
     40  N         15.3520   74.7670   -8.4000 N.3    44  PHE44      -0.1241
     41  CA        13.9180   74.7020   -8.6100 C.3    44  PHE44       0.1605
     42  C         13.5410   75.9160   -9.4660 C.2    44  PHE44       0.2264
     43  O         14.2160   76.9410   -9.4150 O.2    44  PHE44      -0.2867
     44  CB        13.2010   74.7680   -7.2740 C.3    44  PHE44       0.0534
     45  CG        11.7980   74.2750   -7.3260 C.ar   44  PHE44      -0.0203
     46  CD1       11.5320   72.9180   -7.4570 C.ar   44  PHE44      -0.0042
     47  CD2       10.7390   75.1590   -7.2370 C.ar   44  PHE44      -0.0042
     48  CE1       10.2200   72.4460   -7.5020 C.ar   44  PHE44      -0.0003
     49  CE2        9.4230   74.7030   -7.2810 C.ar   44  PHE44      -0.0003
     50  CZ         9.1630   73.3410   -7.4100 C.ar   44  PHE44      -0.0000
     51  N          3.2740   69.5300  -11.0320 N.3    80  TRP80      -0.1227
     52  CA         3.9370   68.9570   -9.8800 C.3    80  TRP80       0.1737
     53  C          3.6350   67.4810   -9.6590 C.2    80  TRP80       0.2596
     54  O          2.8960   66.8650  -10.4190 O.2    80  TRP80      -0.2718
     55  CB         3.6340   69.8040   -8.6410 C.3    80  TRP80       0.0564
     56  CG         4.1440   71.2390   -8.8090 C.ar   80  TRP80       0.0003
     57  CD1        5.3150   71.6360   -9.4120 C.ar   80  TRP80       0.0946
     58  CD2        3.4920   72.4440   -8.3840 C.ar   80  TRP80       0.0152
     59  NE1        5.4220   73.0110   -9.3900 N.ar   80  TRP80      -0.2442
     60  CE2        4.3170   73.5300   -8.7680 C.ar   80  TRP80       0.0810
     61  CE3        2.2850   72.7150   -7.7210 C.ar   80  TRP80       0.0012
     62  CZ2        3.9760   74.8570   -8.5050 C.ar   80  TRP80       0.0191
     63  CZ3        1.9460   74.0440   -7.4590 C.ar   80  TRP80       0.0001
     64  CH2        2.7900   75.0940   -7.8550 C.ar   80  TRP80       0.0015
     65  N          4.2300   66.9170   -8.6190 N.am   81  SER81      -0.1952
     66  CA         4.1060   65.4960   -8.3150 C.3    81  SER81       0.1924
     67  C          2.7300   64.8540   -8.4060 C.2    81  SER81       0.2314
     68  O          1.7060   65.5050   -8.2170 O.2    81  SER81      -0.2863
     69  CB         4.7330   65.2250   -6.9510 C.3    81  SER81       0.2116
     70  OG         6.1120   65.5670   -6.9870 O.3    81  SER81      -0.2180
     71  N         -3.5010   75.1160   -6.5010 N.3   105  GLN105     -0.1245
     72  CA        -2.9700   73.7780   -6.6510 C.3   105  GLN105      0.1566
     73  C         -4.1870   72.9010   -6.9250 C.2   105  GLN105      0.2260
     74  O         -5.0640   72.7540   -6.0730 O.2   105  GLN105     -0.2867
     75  CB        -2.2440   73.3280   -5.3780 C.3   105  GLN105      0.0367
     76  CG        -1.0310   74.1780   -5.0150 C.3   105  GLN105      0.0905
     77  CD        -0.1380   73.5200   -3.9710 C.2   105  GLN105      0.2608
     78  OE1       -0.6190   72.9610   -2.9840 O.2   105  GLN105     -0.2717
     79  NE2        1.1710   73.5950   -4.1810 N.am  105  GLN105     -0.0878
     80  N         -2.5630   76.7480   -1.6140 N.3   141  ASP141     -0.1239
     81  CA        -1.1690   76.3360   -1.6460 C.3   141  ASP141      0.1674
     82  C         -0.9350   75.2800   -0.5900 C.2   141  ASP141      0.2266
     83  O          0.1540   75.1810   -0.0220 O.2   141  ASP141     -0.2867
     84  CB        -0.2540   77.5310   -1.3960 C.3   141  ASP141      0.1410
     85  CG        -0.0790   78.3900   -2.6300 C.2   141  ASP141      0.3668
     86  OD1        0.4160   77.8610   -3.6540 O.co2 141  ASP141     -0.2456
     87  OD2       -0.4330   79.5900   -2.5830 O.co2 141  ASP141     -0.2456
     88  N         -2.0700   69.0720   -2.4920 N.3   144  ARG144     -0.1231
     89  CA        -1.3490   68.4820   -3.6120 C.3   144  ARG144      0.1694
     90  C         -0.8750   67.0320   -3.4810 C.2   144  ARG144      0.2592
     91  O         -1.0930   66.3700   -2.4640 O.2   144  ARG144     -0.2718
     92  CB        -0.1410   69.3600   -3.9220 C.3   144  ARG144      0.0321
     93  CG         0.7540   69.5630   -2.7200 C.3   144  ARG144      0.0489
     94  CD         1.9360   70.4600   -3.0310 C.3   144  ARG144      0.2205
     95  NE         2.7980   70.6560   -1.8630 N.pl3 144  ARG144     -0.0865
     96  CZ         2.5040   71.4280   -0.8180 C.cat 144  ARG144      0.5346
     97  NH1        1.3580   72.0960   -0.7840 N.pl3 144  ARG144      0.1354
     98  NH2        3.3570   71.5320    0.1940 N.pl3 144  ARG144      0.1354
     99  N         -0.2300   66.5600   -4.5490 N.am  145  ASP145     -0.1974
    100  CA         0.3360   65.2190   -4.6410 C.3   145  ASP145      0.1709
    101  C         -0.6440   64.0520   -4.5510 C.2   145  ASP145      0.2293
    102  O         -0.5690   63.2360   -3.6260 O.2   145  ASP145     -0.2864
    103  CB         1.4200   65.0510   -3.5790 C.3   145  ASP145      0.1436
    104  CG         2.3360   66.2420   -3.5050 C.2   145  ASP145      0.3671
    105  OD1        2.3000   67.0740   -4.4320 O.co2 145  ASP145     -0.2456
    106  OD2        3.0980   66.3540   -2.5260 O.co2 145  ASP145     -0.2456
    107  N          2.8090   65.9910    2.4030 N.3   199  GLN199     -0.1231
    108  CA         3.2230   65.8470    1.0200 C.3   199  GLN199      0.1698
    109  C          3.4620   64.4230    0.5280 C.2   199  GLN199      0.2592
    110  O          3.9210   63.5640    1.2780 O.2   199  GLN199     -0.2718
    111  CB         4.4800   66.6710    0.8110 C.3   199  GLN199      0.0381
    112  CG         4.2810   68.1190    1.1290 C.3   199  GLN199      0.0905
    113  CD         5.5710   68.8780    1.0680 C.2   199  GLN199      0.2608
    114  OE1        5.5870   70.1070    1.0000 O.2   199  GLN199     -0.2717
    115  NE2        6.6760   68.1490    1.0940 N.am  199  GLN199     -0.0878
    116  N          3.1460   64.1890   -0.7430 N.am  200  CYS200     -0.1970
    117  CA         3.3490   62.8930   -1.3760 C.3   200  CYS200      0.1712
    118  C          2.7860   61.7170   -0.5880 C.2   200  CYS200      0.2296
    119  O          3.4430   60.6770   -0.4480 O.2   200  CYS200     -0.2864
    120  CB         4.8430   62.6730   -1.6090 C.3   200  CYS200      0.0983
    121  SG         5.5940   63.8920   -2.7010 S.3   200  CYS200     -0.0798
    122  N         13.5790   62.0180    0.5940 N.3   272  TYR272     -0.1227
    123  CA        12.3000   62.7200    0.5350 C.3   272  TYR272      0.1736
    124  C         11.3990   62.4060   -0.6650 C.2   272  TYR272      0.2595
    125  O         11.8450   61.8640   -1.6850 O.2   272  TYR272     -0.2718
    126  CB        12.5140   64.2370    0.6100 C.3   272  TYR272      0.0548
    127  CG        11.3570   64.9220    1.2980 C.ar  272  TYR272     -0.0200
    128  CD1       11.0040   64.5690    2.5980 C.ar  272  TYR272     -0.0009
    129  CD2       10.5860   65.8810    0.6460 C.ar  272  TYR272     -0.0009
    130  CE1        9.9170   65.1440    3.2350 C.ar  272  TYR272      0.0417
    131  CE2        9.4880   66.4690    1.2760 C.ar  272  TYR272      0.0417
    132  CZ         9.1610   66.0910    2.5730 C.ar  272  TYR272      0.1957
    133  OH         8.0810   66.6550    3.2220 O.3   272  TYR272     -0.2866
    134  N         10.1210   62.7470   -0.5160 N.am  273  ALA273     -0.1980
    135  CA         9.1290   62.5420   -1.5560 C.3   273  ALA273      0.1597
    136  C          9.0630   61.0970   -2.0460 C.2   273  ALA273      0.2287
    137  O          8.7430   60.8430   -3.2070 O.2   273  ALA273     -0.2864
    138  CB         9.4180   63.4740   -2.7220 C.3   273  ALA273      0.0319
    139  N         13.5470   60.7640   -3.5900 N.3   290  TRP290     -0.1241
    140  CA        14.4290   61.8380   -3.9900 C.3   290  TRP290      0.1605
    141  C         15.4740   62.0430   -2.9140 C.2   290  TRP290      0.2264
    142  O         15.1420   62.0720   -1.7340 O.2   290  TRP290     -0.2867
    143  CB        13.6290   63.1240   -4.1760 C.3   290  TRP290      0.0550
    144  CG        14.4770   64.3460   -4.3590 C.ar  290  TRP290      0.0003
    145  CD1       15.6110   64.4530   -5.1060 C.ar  290  TRP290      0.0946
    146  CD2       14.2230   65.6480   -3.8240 C.ar  290  TRP290      0.0152
    147  NE1       16.0810   65.7460   -5.0740 N.ar  290  TRP290     -0.2442
    148  CE2       15.2460   66.5020   -4.2920 C.ar  290  TRP290      0.0810
    149  CE3       13.2270   66.1780   -2.9930 C.ar  290  TRP290      0.0012
    150  CZ2       15.3050   67.8550   -3.9640 C.ar  290  TRP290      0.0191
    151  CZ3       13.2860   67.5260   -2.6640 C.ar  290  TRP290      0.0001
    152  CH2       14.3210   68.3490   -3.1500 C.ar  290  TRP290      0.0015
@<TRIPOS>BOND
     1     1     2    1
     2     4     3    2
     3    33    34    2
     4    33    32    1
     5     3     2    1
     6     2     5    1
     7    51    52    1
     8    32    31    1
     9    32    35    1
    10     5     6    1
    11    39    37   am
    12    54    53    2
    13    52    53    1
    14    52    55    1
    15     7     6   ar
    16     7     9   ar
    17    37    38    2
    18    37    36    1
    19     6     8   ar
    20    53    65   am
    21    35    36    1
    22    42    43    2
    23    42    41    1
    24    57    59   ar
    25    57    56   ar
    26    59    60   ar
    27    56    55    1
    28    56    58   ar
    29    60    62   ar
    30    60    58   ar
    31    26    25    2
    32    15    16    1
    33    65    66    1
    34     9    10   ar
    35    41    40    1
    36    41    44    1
    37    62    64   ar
    38    67    66    1
    39    67    68    2
    40    58    61   ar
    41    21    20    2
    42    66    69    1
    43     8    10   ar
    44     8    11   ar
    45    64    63   ar
    46    18    17    2
    47    61    63   ar
    48    10    12   ar
    49    11    13   ar
    50    25    24    1
    51    48    46   ar
    52    48    50   ar
    53    46    45   ar
    54    50    49   ar
    55    45    44    1
    56    45    47   ar
    57    49    47   ar
    58    16    17    1
    59    16    19    1
    60    20    22   am
    61    20    19    1
    62    17    23   am
    63    70    69    1
    64    73    72    1
    65    73    74    2
    66    72    71    1
    67    72    75    1
    68    23    24    1
    69    24    27    1
    70    12    14   ar
    71    27    28    1
    72    13    14   ar
    73    75    76    1
    74   145   147   ar
    75   145   144   ar
    76   147   148   ar
    77    76    77    1
    78    28    29   ar
    79    28    30   ar
    80   100   101    1
    81   100    99    1
    82   100   103    1
    83   101   102    2
    84    99    90   am
    85   105   104   ar
    86   144   143    1
    87   144   146   ar
    88   148   150   ar
    89   148   146   ar
    90    79    77   am
    91   143   140    1
    92   140   139    1
    93   140   141    1
    94    77    78    2
    95   150   152   ar
    96    92    89    1
    97    92    93    1
    98   146   149   ar
    99    86    85   ar
   100    89    90    1
   101    89    88    1
   102   103   104    1
   103   104   106   ar
   104    90    91    2
   105   137   136    2
   106   152   151   ar
   107    94    93    1
   108    94    95    1
   109   149   151   ar
   110   141   142    2
   111   138   135    1
   112   121   120    1
   113    85    87   ar
   114    85    84    1
   115   136   135    1
   116    95    96    2
   117   125   124    2
   118    81    80    1
   119    81    84    1
   120    81    82    1
   121   120   117    1
   122   135   134    1
   123   117   116    1
   124   117   118    1
   125    96    97    1
   126    96    98    1
   127   116   109   am
   128   124   134   am
   129   124   123    1
   130    82    83    2
   131   118   119    2
   132   109   108    1
   133   109   110    2
   134   123   122    1
   135   123   126    1
   136   126   127    1
   137   129   131   ar
   138   129   127   ar
   139   111   108    1
   140   111   112    1
   141   114   113    2
   142   108   107    1
   143   113   115   am
   144   113   112    1
   145   131   132   ar
   146   127   128   ar
   147   132   133    1
   148   132   130   ar
   149   128   130   ar
