@<TRIPOS>MOLECULE
tmp/2aezA00.pdb
 84 76 0 0 0
SMALL
GASTEIGER

@<TRIPOS>ATOM
      1  N         41.9030   50.1730   11.9910 N.3   352  VAL352     -0.1245
      2  CA        41.4650   50.7140   10.6990 C.3   352  VAL352      0.1561
      3  C         42.0960   49.7900    9.6650 C.2   352  VAL352      0.2260
      4  O         43.3040   49.8190    9.4660 O.2   352  VAL352     -0.2867
      5  CB        41.9810   52.1540   10.4380 C.3   352  VAL352      0.0252
      6  CG1       41.6990   52.5500    8.9990 C.3   352  VAL352      0.0019
      7  CG2       41.3040   53.1340   11.3630 C.3   352  VAL352      0.0019
      8  N         32.6190   59.2830   15.0290 N.3   396  ALA396     -0.1231
      9  CA        33.5160   58.1390   14.9410 C.3   396  ALA396      0.1694
     10  C         34.6890   58.2770   15.8920 C.2   396  ALA396      0.2592
     11  O         35.2810   57.2750   16.2920 O.2   396  ALA396     -0.2718
     12  CB        34.0200   57.9770   13.5240 C.3   396  ALA396      0.0304
     13  N         35.0160   59.5180   16.2540 N.am  397  SER397     -0.1952
     14  CA        36.1350   59.7810   17.1570 C.3   397  SER397      0.1924
     15  C         35.7830   59.5850   18.6360 C.2   397  SER397      0.2314
     16  O         36.6610   59.6140   19.5020 O.2   397  SER397     -0.2863
     17  CB        36.6640   61.1980   16.9430 C.3   397  SER397      0.2116
     18  OG        35.7520   62.1550   17.4420 O.3   397  SER397     -0.2180
     19  N         35.3040   57.2650   21.1680 N.3   399  ARG399     -0.1245
     20  CA        35.4980   55.8560   21.4880 C.3   399  ARG399      0.1563
     21  C         34.5260   55.3990   22.5710 C.2   399  ARG399      0.2260
     22  O         34.1640   56.1730   23.4520 O.2   399  ARG399     -0.2867
     23  CB        36.9440   55.6240   21.9210 C.3   399  ARG399      0.0307
     24  CG        37.9470   56.1860   20.9240 C.3   399  ARG399      0.0489
     25  CD        39.3510   55.7120   21.2090 C.3   399  ARG399      0.2205
     26  NE        39.4300   54.2580   21.2000 N.pl3 399  ARG399     -0.0865
     27  CZ        40.5510   53.5780   21.4040 C.cat 399  ARG399      0.5346
     28  NH1       41.6800   54.2360   21.6310 N.pl3 399  ARG399      0.1354
     29  NH2       40.5470   52.2470   21.3820 N.pl3 399  ARG399      0.1354
     30  N         34.3830   53.1100    6.6790 N.3   408  LEU408     -0.1245
     31  CA        34.8520   54.4450    6.3640 C.3   408  LEU408      0.1561
     32  C         34.7520   54.4810    4.8510 C.2   408  LEU408      0.2260
     33  O         35.6380   53.9730    4.1630 O.2   408  LEU408     -0.2867
     34  CB        36.3070   54.6360    6.7850 C.3   408  LEU408      0.0270
     35  CG        36.6120   54.5510    8.2790 C.3   408  LEU408      0.0019
     36  CD1       38.0690   54.9070    8.4970 C.3   408  LEU408      0.0001
     37  CD2       35.7110   55.4930    9.0510 C.3   408  LEU408      0.0001
     38  N         42.8660   59.4860    5.4520 N.3   415  LEU415     -0.1245
     39  CA        41.6950   59.6880    6.3020 C.3   415  LEU415      0.1561
     40  C         41.4350   61.1380    6.7380 C.2   415  LEU415      0.2260
     41  O         40.8240   61.3830    7.7840 O.2   415  LEU415     -0.2867
     42  CB        41.7600   58.7800    7.5300 C.3   415  LEU415      0.0270
     43  CG        41.0800   57.4290    7.3180 C.3   415  LEU415      0.0019
     44  CD1       41.9020   56.5840    6.3950 C.3   415  LEU415      0.0001
     45  CD2       40.9160   56.7330    8.6350 C.3   415  LEU415      0.0001
     46  N         36.5140   61.4530    5.5380 N.3   418  GLN418     -0.1245
     47  CA        35.9370   60.1200    5.6590 C.3   418  GLN418      0.1566
     48  C         34.4750   60.1690    6.0810 C.2   418  GLN418      0.2260
     49  O         34.0530   61.0740    6.8010 O.2   418  GLN418     -0.2867
     50  CB        36.7120   59.3180    6.7120 C.3   418  GLN418      0.0367
     51  CG        36.8820   60.0920    8.0180 C.3   418  GLN418      0.0905
     52  CD        37.3380   59.2440    9.1910 C.2   418  GLN418      0.2608
     53  OE1       36.5510   58.5060    9.7760 O.2   418  GLN418     -0.2717
     54  NE2       38.6140   59.3550    9.5460 N.am  418  GLN418     -0.0878
     55  N         33.1000   64.5420    9.2810 N.3   443  ARG443     -0.1245
     56  CA        34.4260   64.6690    8.7020 C.3   443  ARG443      0.1563
     57  C         34.4150   64.2340    7.2370 C.2   443  ARG443      0.2260
     58  O         35.4660   64.0710    6.6080 O.2   443  ARG443     -0.2867
     59  CB        35.4020   63.8030    9.4910 C.3   443  ARG443      0.0307
     60  CG        36.5950   64.5380   10.0540 C.3   443  ARG443      0.0489
     61  CD        37.5580   63.5590   10.7000 C.3   443  ARG443      0.2205
     62  NE        36.9350   62.8720   11.8270 N.pl3 443  ARG443     -0.0865
     63  CZ        37.3880   61.7400   12.3600 C.cat 443  ARG443      0.5346
     64  NH1       38.4800   61.1580   11.8650 N.pl3 443  ARG443      0.1354
     65  NH2       36.7420   61.1840   13.3840 N.pl3 443  ARG443      0.1354
     66  N         36.6540   49.5940   10.3820 N.3   509  PHE509     -0.1241
     67  CA        37.3580   50.0680   11.5620 C.3   509  PHE509      0.1605
     68  C         36.6390   49.7780   12.8610 C.2   509  PHE509      0.2264
     69  O         35.4450   49.4870   12.8780 O.2   509  PHE509     -0.2867
     70  CB        37.5890   51.5730   11.4470 C.3   509  PHE509      0.0534
     71  CG        36.3740   52.3880   11.7620 C.ar  509  PHE509     -0.0203
     72  CD1       36.2400   53.0030   13.0040 C.ar  509  PHE509     -0.0042
     73  CD2       35.3350   52.4990   10.8400 C.ar  509  PHE509     -0.0042
     74  CE1       35.0820   53.7180   13.3300 C.ar  509  PHE509     -0.0003
     75  CE2       34.1710   53.2120   11.1540 C.ar  509  PHE509     -0.0003
     76  CZ        34.0450   53.8220   12.4010 C.ar  509  PHE509     -0.0000
     77  N         36.7820   51.6540   16.6530 N.3   511  ASN511     -0.1240
     78  CA        37.3630   52.6670   17.5290 C.3   511  ASN511      0.1653
     79  C         36.8120   52.5210   18.9360 C.2   511  ASN511      0.2266
     80  O         36.8440   53.4580   19.7270 O.2   511  ASN511     -0.2867
     81  CB        37.0850   54.0790   17.0010 C.3   511  ASN511      0.1155
     82  CG        38.3330   54.9560   16.9990 C.2   511  ASN511      0.2627
     83  OD1       39.4010   54.5370   17.4490 O.2   511  ASN511     -0.2716
     84  ND2       38.1970   56.1750   16.4840 N.am  511  ASN511     -0.0877
@<TRIPOS>BOND
     1    33    32    2
     2    32    31    1
     3    38    39    1
     4    46    47    1
     5    47    48    1
     6    47    50    1
     7    48    49    2
     8    39    40    1
     9    39    42    1
    10    31    30    1
    11    31    34    1
    12    44    43    1
    13    58    57    2
    14    50    51    1
    15    40    41    2
    16    34    35    1
    17    57    56    1
    18    43    42    1
    19    43    45    1
    20    51    52    1
    21    35    36    1
    22    35    37    1
    23    56    55    1
    24    56    59    1
    25     6     5    1
    26    52    54   am
    27    52    53    2
    28     4     3    2
    29    59    60    1
    30     3     2    1
    31    60    61    1
    32    66    67    1
    33     5     2    1
    34     5     7    1
    35     2     1    1
    36    61    62    1
    37    73    75   ar
    38    73    71   ar
    39    75    76   ar
    40    70    67    1
    41    70    71    1
    42    67    68    1
    43    71    72   ar
    44    62    63    2
    45    64    63    1
    46    63    65    1
    47    76    74   ar
    48    68    69    2
    49    72    74   ar
    50    12     9    1
    51     9     8    1
    52     9    10    1
    53    10    13   am
    54    10    11    2
    55    13    14    1
    56    84    82   am
    57    77    78    1
    58    17    14    1
    59    17    18    1
    60    82    81    1
    61    82    83    2
    62    81    78    1
    63    14    15    1
    64    78    79    1
    65    15    16    2
    66    79    80    2
    67    24    25    1
    68    24    23    1
    69    19    20    1
    70    26    25    1
    71    26    27    2
    72    29    27    1
    73    27    28    1
    74    20    23    1
    75    20    21    1
    76    21    22    2
