@<TRIPOS>MOLECULE
tmp/2af3B00.pdb
 133 125 0 0 0
SMALL
GASTEIGER

@<TRIPOS>ATOM
      1  N         -6.3260   78.0480   17.0090 N.3    86  ARG86      -0.1245
      2  CA        -6.2380   77.0010   18.0240 C.3    86  ARG86       0.1563
      3  C         -7.6590   76.7380   18.5360 C.2    86  ARG86       0.2260
      4  O         -7.8650   76.2030   19.6280 O.2    86  ARG86      -0.2867
      5  CB        -5.3040   77.4360   19.1570 C.3    86  ARG86       0.0307
      6  CG        -4.5390   76.3020   19.8400 C.3    86  ARG86       0.0489
      7  CD        -3.3910   75.7410   18.9780 C.3    86  ARG86       0.2205
      8  NE        -2.6620   74.6720   19.6700 N.pl3  86  ARG86      -0.0865
      9  CZ        -2.0130   73.6710   19.0740 C.cat  86  ARG86       0.5346
     10  NH1       -1.9850   73.5670   17.7510 N.pl3  86  ARG86       0.1354
     11  NH2       -1.3930   72.7590   19.8110 N.pl3  86  ARG86       0.1354
     12  N         -8.0470   73.2000   19.1460 N.3    89  LYS89      -0.1245
     13  CA        -7.0140   72.6070   19.9880 C.3    89  LYS89       0.1561
     14  C         -7.0630   73.2070   21.3900 C.2    89  LYS89       0.2260
     15  O         -6.9860   74.4260   21.5560 O.2    89  LYS89      -0.2867
     16  CB        -5.6280   72.7890   19.3560 C.3    89  LYS89       0.0271
     17  CG        -5.3930   71.9670   18.0840 C.3    89  LYS89       0.0035
     18  CD        -6.0020   72.6240   16.8430 C.3    89  LYS89       0.0206
     19  CE        -6.2550   71.6010   15.7390 C.3    89  LYS89       0.1093
     20  NZ        -7.0470   72.1600   14.6020 N.3    89  LYS89      -0.1314
     21  N         14.5130   72.6250   14.9580 N.3   127  SER127     -0.1202
     22  CA        13.6330   72.4340   13.8080 C.3   127  SER127      0.2020
     23  C         12.3790   71.6620   14.2060 C.2   127  SER127      0.2619
     24  O         11.5530   71.3180   13.3600 O.2   127  SER127     -0.2717
     25  CB        14.3690   71.7340   12.6640 C.3   127  SER127      0.2103
     26  OG        15.4750   72.5010   12.2240 O.3   127  SER127     -0.2182
     27  N         12.2590   71.3760   15.5020 N.am  128  SER128     -0.1951
     28  CA        11.0270   70.8300   16.0720 C.3   128  SER128      0.1924
     29  C         10.1670   71.9910   16.5780 C.2   128  SER128      0.2314
     30  O          8.9620   72.0640   16.2990 O.2   128  SER128     -0.2863
     31  CB        11.3320   69.8590   17.2220 C.3   128  SER128      0.2116
     32  OG        12.0930   68.7370   16.7950 O.3   128  SER128     -0.2180
     33  N          8.9300   75.0660   13.6710 N.3   131  LEU131     -0.1231
     34  CA         7.9080   74.7770   12.6750 C.3   131  LEU131      0.1693
     35  C          6.4700   74.7440   13.2350 C.2   131  LEU131      0.2591
     36  O          5.5100   74.7770   12.4630 O.2   131  LEU131     -0.2718
     37  CB         8.2650   73.4950   11.8900 C.3   131  LEU131      0.0284
     38  CG         9.3260   73.4590   10.7520 C.3   131  LEU131      0.0019
     39  CD1        9.1450   74.5870    9.7360 C.3   131  LEU131      0.0001
     40  CD2       10.7720   73.4330   11.2590 C.3   131  LEU131      0.0001
     41  N          6.3290   74.6910   14.5630 N.am  132  ARG132     -0.1980
     42  CA         5.0100   74.7640   15.2240 C.3   132  ARG132      0.1597
     43  C          4.3680   76.1450   15.0250 C.2   132  ARG132      0.2287
     44  O          3.2250   76.2340   14.5610 O.2   132  ARG132     -0.2864
     45  CB         5.1000   74.4290   16.7260 C.3   132  ARG132      0.0334
     46  CG         5.2050   72.9390   17.0830 C.3   132  ARG132      0.0492
     47  CD         5.2130   72.7440   18.6050 C.3   132  ARG132      0.2205
     48  NE         5.1960   71.3360   19.0060 N.pl3 132  ARG132     -0.0865
     49  CZ         6.2760   70.6230   19.3220 C.cat 132  ARG132      0.5346
     50  NH1        7.4840   71.1730   19.2860 N.pl3 132  ARG132      0.1354
     51  NH2        6.1480   69.3510   19.6770 N.pl3 132  ARG132      0.1354
     52  N          3.4010   76.3340   11.5050 N.3   135  VAL135     -0.1231
     53  CA         2.2710   75.5100   11.0920 C.3   135  VAL135      0.1692
     54  C          0.9530   75.9960   11.6970 C.2   135  VAL135      0.2591
     55  O         -0.0230   76.2250   10.9750 O.2   135  VAL135     -0.2718
     56  CB         2.5190   74.0080   11.4050 C.3   135  VAL135      0.0266
     57  CG1        1.2140   73.2760   11.6600 C.3   135  VAL135      0.0020
     58  CG2        3.3000   73.3470   10.2730 C.3   135  VAL135      0.0020
     59  N          0.9450   76.1620   13.0200 N.am  136  GLN136     -0.1979
     60  CA        -0.2790   76.4140   13.7890 C.3   136  GLN136      0.1601
     61  C         -0.9120   77.7710   13.4630 C.2   136  GLN136      0.2287
     62  O         -2.1330   77.8740   13.2700 O.2   136  GLN136     -0.2864
     63  CB         0.0060   76.2850   15.2950 C.3   136  GLN136      0.0394
     64  CG         0.4700   74.8810   15.7350 C.3   136  GLN136      0.0908
     65  CD         1.1370   74.8530   17.1120 C.2   136  GLN136      0.2608
     66  OE1        1.3340   75.8880   17.7470 O.2   136  GLN136     -0.2717
     67  NE2        1.4900   73.6570   17.5700 N.am  136  GLN136     -0.0878
     68  N         -0.1910   78.3410    8.7570 N.3   139  LYS139     -0.1231
     69  CA        -0.7270   77.3300    7.8430 C.3   139  LYS139      0.1693
     70  C         -0.0460   77.4640    6.4650 C.2   139  LYS139      0.2592
     71  O          0.9700   78.1590    6.3280 O.2   139  LYS139     -0.2718
     72  CB        -2.2620   77.4140    7.7460 C.3   139  LYS139      0.0285
     73  CG        -3.0000   76.0710    7.8820 C.3   139  LYS139      0.0035
     74  CD        -3.4240   75.8020    9.3320 C.3   139  LYS139      0.0206
     75  CE        -4.3660   74.6010    9.4540 C.3   139  LYS139      0.1093
     76  NZ        -5.7920   74.9380    9.1700 N.3   139  LYS139     -0.1314
     77  N         -0.6160   76.8150    5.4540 N.am  140  THR140     -0.1953
     78  CA         0.0310   76.6530    4.1510 C.3   140  THR140      0.1897
     79  C         -0.6720   77.3990    3.0090 C.2   140  THR140      0.2313
     80  O         -1.7610   77.9280    3.1900 O.2   140  THR140     -0.2863
     81  CB         0.0870   75.1810    3.8120 C.3   140  THR140      0.1794
     82  OG1       -1.0860   74.5490    4.3400 O.3   140  THR140     -0.2208
     83  CG2        1.3010   74.5520    4.4610 C.3   140  THR140      0.0378
     84  N         -0.3370   71.0740    0.0300 N.3   145  ALA145     -0.1231
     85  CA        -0.9020   70.2260    1.0910 C.3   145  ALA145      0.1694
     86  C         -0.0910   70.2010    2.4010 C.2   145  ALA145      0.2592
     87  O         -0.6090   69.8030    3.4470 O.2   145  ALA145     -0.2718
     88  CB        -1.1580   68.8160    0.5780 C.3   145  ALA145      0.0304
     89  N          1.1720   70.6380    2.3420 N.am  146  LEU146     -0.1966
     90  CA         2.0580   70.6710    3.5240 C.3   146  LEU146      0.1728
     91  C          3.2460   71.6000    3.4010 C.2   146  LEU146      0.2616
     92  O          3.7000   71.8970    2.3010 O.2   146  LEU146     -0.2715
     93  CB         2.5900   69.2650    3.8770 C.3   146  LEU146      0.0311
     94  CG         2.7850   68.1170    2.8690 C.3   146  LEU146      0.0022
     95  CD1        3.7470   68.4360    1.7250 C.3   146  LEU146      0.0001
     96  CD2        3.2550   66.8830    3.6300 C.3   146  LEU146      0.0001
     97  N          3.7440   72.0460    4.5510 N.am  147  ALA147     -0.1977
     98  CA         5.0480   72.6960    4.6450 C.3   147  ALA147      0.1597
     99  C          6.1480   71.6380    4.5230 C.2   147  ALA147      0.2287
    100  O          6.1170   70.6040    5.2090 O.2   147  ALA147     -0.2864
    101  CB         5.1760   73.4140    5.9580 C.3   147  ALA147      0.0319
    102  N         12.6260   68.8080    6.5900 N.3   173  MET173     -0.1230
    103  CA        11.5170   68.7250    7.5210 C.3   173  MET173      0.1702
    104  C         10.8060   67.3790    7.5800 C.2   173  MET173      0.2592
    105  O         10.7180   66.7790    8.6410 O.2   173  MET173     -0.2718
    106  CB        10.5200   69.8160    7.1610 C.3   173  MET173      0.0401
    107  CG         9.2690   69.8180    7.9620 C.3   173  MET173      0.0596
    108  SD         8.4700   71.3760    7.5900 S.3   173  MET173     -0.1393
    109  CE         6.9010   71.1530    8.4330 C.3   173  MET173      0.0692
    110  N         10.3030   66.9100    6.4420 N.am  174  VAL174     -0.1966
    111  CA         9.2690   65.8550    6.4240 C.3   174  VAL174      0.1727
    112  C          9.8530   64.4590    6.4510 C.2   174  VAL174      0.2616
    113  O         10.2910   63.9220    5.4210 O.2   174  VAL174     -0.2715
    114  CB         8.2970   65.9940    5.2150 C.3   174  VAL174      0.0290
    115  CG1        7.0650   65.1100    5.4210 C.3   174  VAL174      0.0023
    116  CG2        7.8860   67.4500    5.0200 C.3   174  VAL174      0.0023
    117  N          9.8270   63.8750    7.6450 N.am  175  GLU175     -0.1963
    118  CA        10.5920   62.6680    7.9580 C.3   175  GLU175      0.1733
    119  C         10.1010   61.5230    7.0920 C.2   175  GLU175      0.2616
    120  O         10.8590   60.9750    6.2930 O.2   175  GLU175     -0.2715
    121  CB        10.4870   62.3700    9.4570 C.3   175  GLU175      0.0429
    122  CG        10.5880   63.6450   10.3320 C.3   175  GLU175      0.1163
    123  CD        10.7040   63.3600   11.8310 C.2   175  GLU175      0.3649
    124  OE1        9.6940   63.5480   12.5440 O.co2 175  GLU175     -0.2457
    125  OE2       11.7950   62.9530   12.3030 O.co2 175  GLU175     -0.2457
    126  N          8.7990   61.2580    7.1880 N.am  176  MET176     -0.1977
    127  CA         8.1340   60.2110    6.4330 C.3   176  MET176      0.1605
    128  C          6.9560   60.7370    5.6320 C.2   176  MET176      0.2287
    129  O          5.7910   60.6390    6.0650 O.2   176  MET176     -0.2864
    130  CB         7.6620   59.1130    7.3680 C.3   176  MET176      0.0413
    131  CG         8.7150   58.0740    7.6410 C.3   176  MET176      0.0598
    132  SD         8.1210   56.9720    8.9310 S.3   176  MET176     -0.1393
    133  CE         8.0320   58.1120   10.3170 C.3   176  MET176      0.0692
@<TRIPOS>BOND
     1    84    85    1
     2    88    85    1
     3    85    86    1
     4    95    94    1
     5    92    91    2
     6    89    86   am
     7    89    90    1
     8    86    87    2
     9    94    96    1
    10    94    93    1
    11    79    80    2
    12    79    78    1
    13    91    90    1
    14    91    97   am
    15    90    93    1
    16    81    78    1
    17    81    82    1
    18    81    83    1
    19    78    77    1
    20    99    98    1
    21    99   100    2
    22    97    98    1
    23    98   101    1
    24   116   114    1
    25   114   115    1
    26   114   111    1
    27   113   112    2
    28    77    70   am
    29   128   129    2
    30   128   127    1
    31   120   119    2
    32    71    70    2
    33   111   110    1
    34   111   112    1
    35   127   126    1
    36   127   130    1
    37   110   104   am
    38   112   117   am
    39    70    69    1
    40   102   103    1
    41   119   126   am
    42   119   118    1
    43   106   103    1
    44   106   107    1
    45   130   131    1
    46   103   104    1
    47   104   105    2
    48   108   107    1
    49   108   109    1
    50   131   132    1
    51   117   118    1
    52    72    69    1
    53    72    73    1
    54    69    68    1
    55    73    74    1
    56   118   121    1
    57   132   133    1
    58    76    75    1
    59    74    75    1
    60   121   122    1
    61    39    38    1
    62    58    56    1
    63   122   123    1
    64    38    40    1
    65    38    37    1
    66    55    54    2
    67    53    56    1
    68    53    52    1
    69    53    54    1
    70    56    57    1
    71    54    59   am
    72   123   125   ar
    73   123   124   ar
    74    37    34    1
    75    26    25    1
    76    36    35    2
    77    25    22    1
    78    34    35    1
    79    34    33    1
    80    59    60    1
    81    35    41   am
    82    62    61    2
    83    24    23    2
    84    61    60    1
    85    60    63    1
    86    22    23    1
    87    22    21    1
    88    23    27   am
    89    44    43    2
    90    41    42    1
    91    20    19    1
    92    43    42    1
    93    42    45    1
    94    63    64    1
    95    27    28    1
    96    64    65    1
    97    19    18    1
    98    28    29    1
    99    28    31    1
   100    30    29    2
   101    45    46    1
   102    32    31    1
   103    18    17    1
   104     1     2    1
   105    46    47    1
   106    65    67   am
   107    65    66    2
   108    10     9    1
   109     2     3    1
   110     2     5    1
   111    17    16    1
   112     3     4    2
   113    47    48    1
   114     7     8    1
   115     7     6    1
   116    48    49    2
   117     9     8    2
   118     9    11    1
   119    12    13    1
   120     5     6    1
   121    50    49    1
   122    49    51    1
   123    16    13    1
   124    13    14    1
   125    14    15    2
