@<TRIPOS>MOLECULE
tmp/2af4A00.pdb
 197 189 0 0 0
SMALL
GASTEIGER

@<TRIPOS>ATOM
      1  N         23.4830   40.1550  -17.4550 N.3   126  SER126     -0.1202
      2  CA        22.8310   40.6880  -16.2710 C.3   126  SER126      0.2020
      3  C         23.4810   40.1340  -15.0080 C.2   126  SER126      0.2619
      4  O         24.0110   38.9970  -14.9910 O.2   126  SER126     -0.2717
      5  CB        21.3280   40.3890  -16.2770 C.3   126  SER126      0.2103
      6  OG        21.1020   39.0100  -16.0660 O.3   126  SER126     -0.2182
      7  N         23.4030   40.9770  -13.9730 N.am  127  SER127     -0.1937
      8  CA        24.0250   40.7850  -12.6610 C.3   127  SER127      0.2055
      9  C         23.3720   39.7260  -11.7980 C.2   127  SER127      0.2643
     10  O         24.0250   39.0760  -10.9520 O.2   127  SER127     -0.2714
     11  CB        23.9520   42.1130  -11.8750 C.3   127  SER127      0.2130
     12  OG        24.5110   43.1600  -12.6460 O.3   127  SER127     -0.2179
     13  N         22.0610   39.6290  -11.9670 N.am  128  SER128     -0.1949
     14  CA        21.2220   38.8200  -11.1250 C.3   128  SER128      0.1924
     15  C         21.6200   37.4360  -11.5400 C.2   128  SER128      0.2314
     16  O         21.5490   36.4700  -10.7700 O.2   128  SER128     -0.2863
     17  CB        19.7230   39.0910  -11.4270 C.3   128  SER128      0.2116
     18  OG        19.4180   40.4890  -11.4940 O.3   128  SER128     -0.2180
     19  N         24.9990   36.8930   -9.5540 N.3   131  LEU131     -0.1245
     20  CA        24.7310   36.8760   -8.1350 C.3   131  LEU131      0.1561
     21  C         23.8180   35.7680   -7.6100 C.2   131  LEU131      0.2260
     22  O         23.9310   35.3530   -6.4540 O.2   131  LEU131     -0.2867
     23  CB        24.2090   38.2670   -7.7320 C.3   131  LEU131      0.0270
     24  CG        25.4410   39.1770   -7.6250 C.3   131  LEU131      0.0019
     25  CD1       25.3630   40.4320   -8.4190 C.3   131  LEU131      0.0001
     26  CD2       25.7460   39.4280   -6.1220 C.3   131  LEU131      0.0001
     27  N         26.5010   45.1660   -1.6530 N.3   149  ALA149     -0.1245
     28  CA        27.2990   45.8200   -2.6960 C.3   149  ALA149      0.1562
     29  C         27.9040   47.1510   -2.1930 C.2   149  ALA149      0.2260
     30  O         27.2310   47.9680   -1.6360 O.2   149  ALA149     -0.2867
     31  CB        26.4900   46.0350   -3.9310 C.3   149  ALA149      0.0290
     32  N         30.8470   50.4500   -3.0230 N.3   151  PHE151     -0.1241
     33  CA        31.5730   51.2640   -3.9820 C.3   151  PHE151      0.1605
     34  C         32.8160   51.7470   -3.2260 C.2   151  PHE151      0.2264
     35  O         32.7510   52.0440   -2.0020 O.2   151  PHE151     -0.2867
     36  CB        30.7670   52.4600   -4.4500 C.3   151  PHE151      0.0534
     37  CG        29.7980   52.1590   -5.6040 C.ar  151  PHE151     -0.0203
     38  CD1       28.5850   51.5570   -5.3470 C.ar  151  PHE151     -0.0042
     39  CD2       30.1400   52.4090   -6.8980 C.ar  151  PHE151     -0.0042
     40  CE1       27.6930   51.2340   -6.3440 C.ar  151  PHE151     -0.0003
     41  CE2       29.2450   52.0990   -7.9670 C.ar  151  PHE151     -0.0003
     42  CZ        28.0230   51.5290   -7.6910 C.ar  151  PHE151     -0.0000
     43  N         24.5050   49.8010   -4.0380 N.3   171  GLY171     -0.1210
     44  CA        24.1070   49.2120   -5.3470 C.3   171  GLY171      0.1956
     45  C         23.2480   47.9780   -5.3930 C.2   171  GLY171      0.2611
     46  O         22.7560   47.6540   -6.4750 O.2   171  GLY171     -0.2717
     47  N         23.0290   47.2830   -4.2690 N.am  172  MET172     -0.1979
     48  CA        22.2800   45.9850   -4.2990 C.3   172  MET172      0.1605
     49  C         21.1620   45.8380   -3.2500 C.2   172  MET172      0.2287
     50  O         20.0290   45.7550   -3.6090 O.2   172  MET172     -0.2864
     51  CB        23.2500   44.8000   -4.1340 C.3   172  MET172      0.0413
     52  CG        22.6530   43.3360   -4.4080 C.3   172  MET172      0.0598
     53  SD        23.9990   42.2070   -3.9920 S.3   172  MET172     -0.1393
     54  CE        23.0750   40.7040   -3.7020 C.3   172  MET172      0.0692
     55  N         22.4590   54.9610   -2.8020 N.3   277  ASN277     -0.1240
     56  CA        22.6560   55.1570   -4.2360 C.3   277  ASN277      0.1653
     57  C         22.7320   56.6570   -4.5750 C.2   277  ASN277      0.2266
     58  O         23.5590   57.1000   -5.3690 O.2   277  ASN277     -0.2867
     59  CB        21.5310   54.4730   -5.0060 C.3   277  ASN277      0.1155
     60  CG        21.8410   54.2890   -6.5020 C.2   277  ASN277      0.2627
     61  OD1       21.3190   55.0140   -7.3290 O.2   277  ASN277     -0.2716
     62  ND2       22.7050   53.3070   -6.8340 N.am  277  ASN277     -0.0877
     63  N         26.3250   57.9400   -3.4060 N.3   280  TYR280     -0.1227
     64  CA        27.3630   57.5990   -4.4020 C.3   280  TYR280      0.1736
     65  C         27.2460   58.4130   -5.6980 C.2   280  TYR280      0.2595
     66  O         28.2420   58.9780   -6.2050 O.2   280  TYR280     -0.2718
     67  CB        27.4890   56.0730   -4.6060 C.3   280  TYR280      0.0548
     68  CG        27.3190   55.5830   -6.0230 C.ar  280  TYR280     -0.0200
     69  CD1       28.2570   55.8860   -6.9870 C.ar  280  TYR280     -0.0009
     70  CD2       26.1880   54.8450   -6.4080 C.ar  280  TYR280     -0.0009
     71  CE1       28.1240   55.4600   -8.2480 C.ar  280  TYR280      0.0417
     72  CE2       26.0510   54.3920   -7.6940 C.ar  280  TYR280      0.0417
     73  CZ        27.0140   54.7060   -8.6010 C.ar  280  TYR280      0.1957
     74  OH        26.8860   54.3240   -9.9050 O.3   280  TYR280     -0.2866
     75  N         26.0340   58.5030   -6.2470 N.am  281  LYS281     -0.1980
     76  CA        25.8190   59.2340   -7.4880 C.3   281  LYS281      0.1596
     77  C         26.1380   60.7160   -7.3450 C.2   281  LYS281      0.2287
     78  O         26.6960   61.3020   -8.2570 O.2   281  LYS281     -0.2864
     79  CB        24.3930   59.0380   -7.9730 C.3   281  LYS281      0.0298
     80  CG        24.0990   57.6020   -8.4560 C.3   281  LYS281      0.0038
     81  CD        24.5690   57.3550   -9.8910 C.3   281  LYS281      0.0206
     82  CE        24.2200   55.9280  -10.3990 C.3   281  LYS281      0.1093
     83  NZ        25.1130   55.6130  -11.5760 N.3   281  LYS281     -0.1314
     84  N         29.9560   61.0170   -7.1570 N.3   284  GLN284     -0.1231
     85  CA        30.5140   60.8520   -8.5030 C.3   284  GLN284      0.1698
     86  C         30.2160   61.9720   -9.4800 C.2   284  GLN284      0.2592
     87  O         31.0860   62.3670  -10.2810 O.2   284  GLN284     -0.2718
     88  CB        30.0070   59.5520   -9.0850 C.3   284  GLN284      0.0381
     89  CG        30.4540   59.1910  -10.5310 C.3   284  GLN284      0.0905
     90  CD        29.6900   57.9630  -11.0680 C.2   284  GLN284      0.2608
     91  OE1       28.4760   58.0000  -11.2420 O.2   284  GLN284     -0.2717
     92  NE2       30.4020   56.9070  -11.3620 N.am  284  GLN284     -0.0878
     93  N         28.9550   62.4060   -9.5060 N.am  285  ARG285     -0.1980
     94  CA        28.4990   63.2780  -10.5110 C.3   285  ARG285      0.1597
     95  C         28.6970   64.7190  -10.1580 C.2   285  ARG285      0.2287
     96  O         28.9380   65.5410  -11.0570 O.2   285  ARG285     -0.2864
     97  CB        26.9870   63.0170  -10.8050 C.3   285  ARG285      0.0334
     98  CG        26.6730   61.6070  -11.3650 C.3   285  ARG285      0.0492
     99  CD        27.3300   61.3990  -12.7270 C.3   285  ARG285      0.2205
    100  NE        27.3050   59.9860  -13.1010 N.pl3 285  ARG285     -0.0865
    101  CZ        27.4540   59.5380  -14.3600 C.cat 285  ARG285      0.5346
    102  NH1       27.6860   60.3830  -15.3600 N.pl3 285  ARG285      0.1354
    103  NH2       27.3870   58.2270  -14.6240 N.pl3 285  ARG285      0.1354
    104  N         34.4660   56.4470   -8.8810 N.3   291  ALA291     -0.1231
    105  CA        33.6600   55.4340   -8.2000 C.3   291  ALA291      0.1694
    106  C         34.0330   54.0520   -8.7460 C.2   291  ALA291      0.2592
    107  O         34.0620   53.8520   -9.9810 O.2   291  ALA291     -0.2718
    108  CB        32.1630   55.6710   -8.5160 C.3   291  ALA291      0.0304
    109  N         34.2720   53.0980   -7.8520 N.am  292  TYR292     -0.1962
    110  CA        34.4820   51.7210   -8.2750 C.3   292  TYR292      0.1771
    111  C         33.4210   50.8360   -7.7010 C.2   292  TYR292      0.2620
    112  O         33.2890   50.7670   -6.4810 O.2   292  TYR292     -0.2715
    113  CB        35.8370   51.2330   -7.7940 C.3   292  TYR292      0.0574
    114  CG        36.9650   52.1120   -8.2280 C.ar  292  TYR292     -0.0198
    115  CD1       37.3520   53.1880   -7.4570 C.ar  292  TYR292     -0.0009
    116  CD2       37.6360   51.8690   -9.4160 C.ar  292  TYR292     -0.0009
    117  CE1       38.4080   53.9970   -7.8390 C.ar  292  TYR292      0.0417
    118  CE2       38.6780   52.6680   -9.8150 C.ar  292  TYR292      0.0417
    119  CZ        39.0710   53.7180   -9.0180 C.ar  292  TYR292      0.1957
    120  OH        40.1100   54.5140   -9.4050 O.3   292  TYR292     -0.2866
    121  N         32.6630   50.1590   -8.5590 N.am  293  GLY293     -0.1940
    122  CA        31.5560   49.3190   -8.0860 C.3   293  GLY293      0.1998
    123  C         30.4050   49.2080   -9.0950 C.2   293  GLY293      0.2480
    124  O         30.4790   49.7970  -10.1490 O.2   293  GLY293     -0.2729
    125  N         29.3160   48.4990   -8.7390 N.am  294  PRO294     -0.2726
    126  CA        29.1960   47.8660   -7.4320 C.3   294  PRO294      0.1402
    127  C         30.1110   46.6420   -7.3080 C.2   294  PRO294      0.2269
    128  O         30.2710   45.9000   -8.2680 O.2   294  PRO294     -0.2865
    129  CB        27.7170   47.4560   -7.3610 C.3   294  PRO294      0.0296
    130  CG        27.0440   48.0760   -8.5220 C.3   294  PRO294      0.0237
    131  CD        28.1000   48.3130   -9.5430 C.3   294  PRO294      0.0939
    132  N         30.8800   43.2070   -4.8300 N.3   296  THR296     -0.1218
    133  CA        30.1200   42.4500   -3.8500 C.3   296  THR296      0.1862
    134  C         31.0730   42.0170   -2.6910 C.2   296  THR296      0.2287
    135  O         32.2800   41.7880   -2.8640 O.2   296  THR296     -0.2866
    136  CB        29.4390   41.2370   -4.4840 C.3   296  THR296      0.1770
    137  OG1       28.5430   41.6720   -5.5130 O.3   296  THR296     -0.2211
    138  CG2       28.6510   40.4620   -3.4400 C.3   296  THR296      0.0375
    139  N         32.3490   38.3480   -8.5360 N.3   304  ASN304     -0.1225
    140  CA        32.0440   39.7060   -8.9410 C.3   304  ASN304      0.1785
    141  C         31.4120   39.8280  -10.2960 C.2   304  ASN304      0.2597
    142  O         31.7350   39.0930  -11.2270 O.2   304  ASN304     -0.2718
    143  CB        33.2960   40.5970   -8.8130 C.3   304  ASN304      0.1169
    144  CG        33.4960   41.1280   -7.3570 C.2   304  ASN304      0.2627
    145  OD1       32.5640   41.6290   -6.7430 O.2   304  ASN304     -0.2716
    146  ND2       34.7090   41.0200   -6.8340 N.am  304  ASN304     -0.0877
    147  N         30.4610   40.7410  -10.3830 N.am  305  ASP305     -0.1960
    148  CA        29.6720   40.9080  -11.5670 C.3   305  ASP305      0.1840
    149  C         30.0120   42.2150  -12.2330 C.2   305  ASP305      0.2622
    150  O         30.0360   43.2330  -11.5820 O.2   305  ASP305     -0.2715
    151  CB        28.2100   40.8870  -11.1860 C.3   305  ASP305      0.1450
    152  CG        27.3050   41.2110  -12.3470 C.2   305  ASP305      0.3671
    153  OD1       26.7540   42.3230  -12.2820 O.co2 305  ASP305     -0.2456
    154  OD2       27.1270   40.3880  -13.2960 O.co2 305  ASP305     -0.2456
    155  N         30.2990   42.1930  -13.5210 N.am  306  LEU306     -0.1963
    156  CA        30.6920   43.4130  -14.2140 C.3   306  LEU306      0.1728
    157  C         29.4570   44.2030  -14.7110 C.2   306  LEU306      0.2617
    158  O         28.4580   44.3760  -13.9890 O.2   306  LEU306     -0.2715
    159  CB        31.6520   43.1060  -15.3650 C.3   306  LEU306      0.0311
    160  CG        32.9740   42.4180  -15.0350 C.3   306  LEU306      0.0022
    161  CD1       33.3930   41.4890  -16.1970 C.3   306  LEU306      0.0001
    162  CD2       34.0810   43.4140  -14.7160 C.3   306  LEU306      0.0001
    163  N         29.5680   44.7590  -15.8940 N.am  307  SER307     -0.1936
    164  CA        28.5020   45.5770  -16.4460 C.3   307  SER307      0.2055
    165  C         28.7820   45.8090  -17.8950 C.2   307  SER307      0.2643
    166  O         29.9350   45.8480  -18.3280 O.2   307  SER307     -0.2714
    167  CB        28.3350   46.9370  -15.7290 C.3   307  SER307      0.2130
    168  OG        29.2190   47.9450  -16.2060 O.3   307  SER307     -0.2179
    169  N         27.6740   45.9860  -18.6020 N.am  308  ARG308     -0.1963
    170  CA        27.5850   46.2870  -20.0130 C.3   308  ARG308      0.1729
    171  C         28.7530   47.0600  -20.6350 C.2   308  ARG308      0.2617
    172  O         29.1630   46.7540  -21.7470 O.2   308  ARG308     -0.2715
    173  CB        26.2870   47.0820  -20.2270 C.3   308  ARG308      0.0348
    174  CG        25.4930   46.7630  -21.5160 C.3   308  ARG308      0.0492
    175  CD        24.1980   47.6580  -21.6150 C.3   308  ARG308      0.2205
    176  NE        23.6190   47.8940  -20.2720 N.pl3 308  ARG308     -0.0865
    177  CZ        22.4420   47.4410  -19.8250 C.cat 308  ARG308      0.5346
    178  NH1       21.6280   46.7430  -20.6150 N.pl3 308  ARG308      0.1354
    179  NH2       22.0700   47.7060  -18.5670 N.pl3 308  ARG308      0.1354
    180  N         29.2530   48.0830  -19.9500 N.am  309  GLY309     -0.1940
    181  CA        30.1620   49.0530  -20.5670 C.3   309  GLY309      0.2014
    182  C         31.6130   48.9900  -20.1440 C.2   309  GLY309      0.2639
    183  O         32.3990   49.8440  -20.5340 O.2   309  GLY309     -0.2714
    184  N         31.9700   47.9940  -19.3370 N.am  310  CYS310     -0.1967
    185  CA        33.3720   47.6930  -19.0380 C.3   310  CYS310      0.1712
    186  C         34.2940   47.5230  -20.2460 C.2   310  CYS310      0.2296
    187  O         33.8980   46.9750  -21.2900 O.2   310  CYS310     -0.2864
    188  CB        33.4200   46.4220  -18.2350 C.3   310  CYS310      0.0983
    189  SG        32.7270   46.6730  -16.6490 S.3   310  CYS310     -0.0798
    190  N         38.9270   47.6160  -17.6610 N.3   314  ASP314     -0.1239
    191  CA        38.0010   47.6000  -16.5400 C.3   314  ASP314      0.1674
    192  C         37.8550   46.1850  -15.9720 C.2   314  ASP314      0.2266
    193  O         37.7390   46.0030  -14.7500 O.2   314  ASP314     -0.2867
    194  CB        36.6290   48.1550  -16.9380 C.3   314  ASP314      0.1410
    195  CG        36.6920   49.5950  -17.3750 C.2   314  ASP314      0.3668
    196  OD1       35.7840   50.0540  -18.1100 O.co2 314  ASP314     -0.2456
    197  OD2       37.6660   50.2740  -17.0040 O.co2 314  ASP314     -0.2456
@<TRIPOS>BOND
     1   172   171    2
     2   175   174    1
     3   175   176    1
     4   174   173    1
     5   187   186    2
     6   171   170    1
     7   171   180   am
     8   178   177    1
     9   181   182    1
    10   181   180    1
    11   183   182    2
    12   176   177    2
    13   186   185    1
    14   173   170    1
    15   182   184   am
    16   170   169    1
    17   177   179    1
    18   184   185    1
    19   185   188    1
    20   169   165   am
    21   166   165    2
    22   188   189    1
    23   196   195   ar
    24   165   164    1
    25   190   191    1
    26     1     2    1
    27   195   197   ar
    28   195   194    1
    29   194   191    1
    30   191   192    1
    31   164   163    1
    32   164   167    1
    33     5     2    1
    34     5     6    1
    35     2     3    1
    36   168   167    1
    37   161   160    1
    38   192   193    2
    39   163   157   am
    40   159   160    1
    41   159   156    1
    42   102   101    1
    43   160   162    1
    44     3     4    2
    45     3     7   am
    46   157   156    1
    47   157   158    2
    48   103   101    1
    49   101   100    2
    50   156   155    1
    51     7     8    1
    52   155   149   am
    53   154   152   ar
    54   100    99    1
    55    99    98    1
    56     8    11    1
    57     8     9    1
    58    12    11    1
    59   152   153   ar
    60   152   151    1
    61   149   150    2
    62   149   148    1
    63    13     9   am
    64    13    14    1
    65     9    10    2
    66    83    82    1
    67   148   151    1
    68   148   147    1
    69    15    14    1
    70    15    16    2
    71    18    17    1
    72    17    14    1
    73    98    97    1
    74    92    90   am
    75    91    90    2
    76   142   141    2
    77    90    89    1
    78    96    95    2
    79    97    94    1
    80    89    88    1
    81    94    95    1
    82    94    93    1
    83    82    81    1
    84   147   141   am
    85   141   140    1
    86    87    86    2
    87   124   123    2
    88   107   106    2
    89    74    73    1
    90    81    80    1
    91   118   116   ar
    92   118   119   ar
    93    19    20    1
    94   131   125    1
    95   131   130    1
    96    93    86   am
    97    86    85    1
    98   116   114   ar
    99   120   119    1
   100   123   125   am
   101   123   122    1
   102    88    85    1
   103   119   117   ar
   104   140   143    1
   105   140   139    1
   106   104   105    1
   107   143   144    1
   108   106   105    1
   109   106   109   am
   110   125   126    1
   111    73    71   ar
   112    73    72   ar
   113   121   122    1
   114   121   111   am
   115   130   129    1
   116   108   105    1
   117    85    84    1
   118    80    79    1
   119    25    24    1
   120   110   109    1
   121   110   113    1
   122   110   111    1
   123   128   127    2
   124    78    77    2
   125    71    69   ar
   126   114   113    1
   127   114   115   ar
   128    20    23    1
   129    20    21    1
   130    79    76    1
   131    41    42   ar
   132    41    39   ar
   133   117   115   ar
   134    23    24    1
   135   111   112    2
   136    72    70   ar
   137    42    40   ar
   138    24    26    1
   139    21    22    2
   140    76    77    1
   141    76    75    1
   142   126   129    1
   143   126   127    1
   144   144   146   am
   145   144   145    2
   146    61    60    2
   147    69    68   ar
   148    39    37   ar
   149    62    60   am
   150    60    59    1
   151    46    45    2
   152    70    68   ar
   153    40    38   ar
   154    75    65   am
   155    66    65    2
   156    68    67    1
   157    65    64    1
   158    37    38   ar
   159    37    36    1
   160   137   136    1
   161    45    44    1
   162    45    47   am
   163    58    57    2
   164    44    43    1
   165    59    56    1
   166   132   133    1
   167    67    64    1
   168    57    56    1
   169   136   133    1
   170   136   138    1
   171    36    33    1
   172    52    51    1
   173    52    53    1
   174    64    63    1
   175    48    47    1
   176    48    51    1
   177    48    49    1
   178    56    55    1
   179    53    54    1
   180    33    34    1
   181    33    32    1
   182    31    28    1
   183   133   134    1
   184    50    49    2
   185    34    35    2
   186   135   134    2
   187    28    29    1
   188    28    27    1
   189    29    30    2
