@<TRIPOS>MOLECULE
tmp/2afhB04.pdb
 114 110 0 0 0
SMALL
GASTEIGER

@<TRIPOS>ATOM
      1  N         55.0200    7.7130   45.6830 N.3    44  GLN44      -0.1245
      2  CA        55.5040    7.6400   47.0550 C.3    44  GLN44       0.1566
      3  C         56.9090    8.2460   47.1820 C.2    44  GLN44       0.2260
      4  O         57.2180    8.9810   48.1300 O.2    44  GLN44      -0.2867
      5  CB        55.4980    6.1780   47.5300 C.3    44  GLN44       0.0367
      6  CG        56.3280    5.9360   48.7660 C.3    44  GLN44       0.0905
      7  CD        55.7970    6.6640   50.0040 C.2    44  GLN44       0.2608
      8  OE1       56.5210    6.8130   51.0000 O.2    44  GLN44      -0.2717
      9  NE2       54.5340    7.1100   49.9550 N.am   44  GLN44      -0.0878
     10  N         57.3010   11.9230   47.6710 N.3    47  THR47      -0.1203
     11  CA        56.8970   12.5350   48.9490 C.3    47  THR47       0.1994
     12  C         58.0270   12.3790   49.9760 C.2    47  THR47       0.2619
     13  O         57.9040   12.8590   51.0900 O.2    47  THR47      -0.2717
     14  CB        55.6580   11.8420   49.5840 C.3    47  THR47       0.1784
     15  OG1       56.0450   10.5290   50.0150 O.3    47  THR47      -0.2211
     16  CG2       54.4830   11.7360   48.5790 C.3    47  THR47       0.0376
     17  N         59.1460   11.7780   49.5810 N.am   48  THR48      -0.1938
     18  CA        60.2440   11.5680   50.5240 C.3    48  THR48       0.2028
     19  C         61.2920   12.6510   50.6720 C.2    48  THR48       0.2642
     20  O         61.3860   13.5540   49.8790 O.2    48  THR48      -0.2714
     21  CB        61.0290   10.2650   50.2070 C.3    48  THR48       0.1808
     22  OG1       61.7770   10.4480   48.9830 O.3    48  THR48      -0.2208
     23  CG2       60.0830    9.0820   50.0610 C.3    48  THR48       0.0379
     24  N         62.0900   12.5270   51.7230 N.am   49  LYS49      -0.1977
     25  CA        63.1560   13.4700   52.0060 C.3    49  LYS49       0.1596
     26  C         64.2600   13.2990   50.9330 C.2    49  LYS49       0.2287
     27  O         64.8590   14.2810   50.5040 O.2    49  LYS49      -0.2864
     28  CB        63.7090   13.2050   53.4090 C.3    49  LYS49       0.0298
     29  CG        64.8560   14.1190   53.8180 C.3    49  LYS49       0.0038
     30  CD        64.4020   15.5850   53.9050 C.3    49  LYS49       0.0206
     31  CE        65.3400   16.3860   54.8240 C.3    49  LYS49       0.1093
     32  NZ        66.7750   16.2840   54.3870 N.3    49  LYS49      -0.1314
     33  N         50.2940   25.3090   62.3180 N.3   365  ARG365     -0.1245
     34  CA        51.4050   25.4140   61.3800 C.3   365  ARG365      0.1563
     35  C         50.9870   25.7200   59.9240 C.2   365  ARG365      0.2260
     36  O         50.1080   25.0750   59.3480 O.2   365  ARG365     -0.2867
     37  CB        52.2190   24.1080   61.4640 C.3   365  ARG365      0.0307
     38  CG        52.9670   23.9130   62.8400 C.3   365  ARG365      0.0489
     39  CD        53.1670   22.4160   63.1620 C.3   365  ARG365      0.2205
     40  NE        53.6950   21.6600   62.0200 N.pl3 365  ARG365     -0.0865
     41  CZ        54.9670   21.6290   61.6550 C.cat 365  ARG365      0.5346
     42  NH1       55.8760   22.2990   62.3480 N.pl3 365  ARG365      0.1354
     43  NH2       55.3260   20.9630   60.5630 N.pl3 365  ARG365      0.1354
     44  N         55.6750   20.3450   52.2230 N.3   433  VAL433     -0.1231
     45  CA        54.4650   19.9850   52.9280 C.3   433  VAL433      0.1692
     46  C         54.3030   18.4660   53.0760 C.2   433  VAL433      0.2592
     47  O         53.3990   18.0020   53.7860 O.2   433  VAL433     -0.2718
     48  CB        53.2040   20.6400   52.2980 C.3   433  VAL433      0.0266
     49  CG1       53.3820   22.1730   52.2920 C.3   433  VAL433      0.0020
     50  CG2       52.9420   20.1010   50.9200 C.3   433  VAL433      0.0020
     51  N         55.1350   17.6850   52.3830 N.am  434  PHE434     -0.1962
     52  CA        55.0690   16.2260   52.5000 C.3   434  PHE434      0.1771
     53  C         56.1060   15.8670   53.5950 C.2   434  PHE434      0.2620
     54  O         55.7790   15.1560   54.5480 O.2   434  PHE434     -0.2715
     55  CB        55.4830   15.4960   51.2130 C.3   434  PHE434      0.0574
     56  CG        54.3400   15.2000   50.2870 C.ar  434  PHE434     -0.0200
     57  CD1       53.2650   14.4330   50.7230 C.ar  434  PHE434     -0.0042
     58  CD2       54.3280   15.6950   48.9910 C.ar  434  PHE434     -0.0042
     59  CE1       52.1920   14.1670   49.8950 C.ar  434  PHE434     -0.0003
     60  CE2       53.2350   15.4310   48.1300 C.ar  434  PHE434     -0.0003
     61  CZ        52.1670   14.6680   48.5880 C.ar  434  PHE434     -0.0000
     62  N         57.3340   16.3960   53.5000 N.am  435  THR435     -0.1937
     63  CA        58.3670   16.0660   54.5130 C.3   435  THR435      0.2028
     64  C         58.2310   16.7010   55.9120 C.2   435  THR435      0.2642
     65  O         58.6600   16.1210   56.9000 O.2   435  THR435     -0.2714
     66  CB        59.8130   16.3810   54.0010 C.3   435  THR435      0.1808
     67  OG1       59.9490   17.7960   53.7820 O.3   435  THR435     -0.2208
     68  CG2       60.1280   15.6120   52.6890 C.3   435  THR435      0.0379
     69  N         57.6550   17.8930   55.9990 N.am  436  ASP436     -0.1957
     70  CA        57.4770   18.5720   57.2830 C.3   436  ASP436      0.1840
     71  C         56.0470   19.1110   57.1880 C.2   436  ASP436      0.2621
     72  O         55.8380   20.3120   57.0770 O.2   436  ASP436     -0.2715
     73  CB        58.5090   19.7060   57.3650 C.3   436  ASP436      0.1450
     74  CG        58.5280   20.4000   58.7190 C.2   436  ASP436      0.3671
     75  OD1       57.8530   19.9430   59.6910 O.co2 436  ASP436     -0.2456
     76  OD2       59.2500   21.4210   58.8100 O.co2 436  ASP436     -0.2456
     77  N         55.0780   18.2080   57.2410 N.am  437  LYS437     -0.1977
     78  CA        53.6810   18.5740   57.1320 C.3   437  LYS437      0.1596
     79  C         53.1110   19.6350   58.0850 C.2   437  LYS437      0.2287
     80  O         53.1280   19.4710   59.3110 O.2   437  LYS437     -0.2864
     81  CB        52.8040   17.3120   57.2240 C.3   437  LYS437      0.0298
     82  CG        51.3390   17.6070   57.0270 C.3   437  LYS437      0.0038
     83  CD        50.4500   16.4470   57.4280 C.3   437  LYS437      0.0206
     84  CE        48.9560   16.8470   57.2750 C.3   437  LYS437      0.1093
     85  NZ        48.5800   17.8720   58.2980 N.3   437  LYS437     -0.1314
     86  N         48.2820   10.8260   49.0710 N.3   457  LYS457     -0.1245
     87  CA        49.1200   10.0320   49.9720 C.3   457  LYS457      0.1561
     88  C         48.1920    9.4460   51.0490 C.2   457  LYS457      0.2260
     89  O         48.3550    8.3010   51.4510 O.2   457  LYS457     -0.2867
     90  CB        50.2100   10.8840   50.6380 C.3   457  LYS457      0.0271
     91  CG        51.1850   10.0470   51.4550 C.3   457  LYS457      0.0035
     92  CD        52.2280   10.9190   52.1170 C.3   457  LYS457      0.0206
     93  CE        53.0290   10.1540   53.1640 C.3   457  LYS457      0.1093
     94  NZ        53.8210   11.0770   54.0460 N.3   457  LYS457     -0.1314
     95  N         44.9060   11.5910   56.0660 N.3   460  GLU460     -0.1231
     96  CA        45.6330   12.1390   57.2080 C.3   460  GLU460      0.1699
     97  C         46.8420   12.9710   56.8130 C.2   460  GLU460      0.2592
     98  O         47.4300   13.6070   57.6520 O.2   460  GLU460     -0.2718
     99  CB        46.0740   11.0350   58.1690 C.3   460  GLU460      0.0402
    100  CG        47.1880   10.1680   57.6610 C.3   460  GLU460      0.1161
    101  CD        46.6860    8.9690   56.8780 C.2   460  GLU460      0.3649
    102  OE1       45.7880    9.1440   56.0080 O.co2 460  GLU460     -0.2457
    103  OE2       47.2010    7.8470   57.1370 O.co2 460  GLU460     -0.2457
    104  N         47.2100   12.9680   55.5370 N.am  461  PHE461     -0.1976
    105  CA        48.3620   13.7520   55.0860 C.3   461  PHE461      0.1639
    106  C         47.9160   14.9700   54.2950 C.2   461  PHE461      0.2290
    107  O         48.7550   15.7850   53.8890 O.2   461  PHE461     -0.2864
    108  CB        49.2780   12.8990   54.1930 C.3   461  PHE461      0.0560
    109  CG        49.8230   11.6940   54.8970 C.ar  461  PHE461     -0.0200
    110  CD1       50.7190   11.8470   55.9360 C.ar  461  PHE461     -0.0042
    111  CD2       49.3890   10.4080   54.5580 C.ar  461  PHE461     -0.0042
    112  CE1       51.1890   10.7190   56.6460 C.ar  461  PHE461     -0.0003
    113  CE2       49.8390    9.2860   55.2440 C.ar  461  PHE461     -0.0003
    114  CZ        50.7420    9.4320   56.2920 C.ar  461  PHE461     -0.0000
@<TRIPOS>BOND
     1     1     2    1
     2     2     3    1
     3     2     5    1
     4     3     4    2
     5     5     6    1
     6    10    11    1
     7    60    61   ar
     8    60    58   ar
     9    16    14    1
    10    61    59   ar
    11     6     7    1
    12    11    14    1
    13    11    12    1
    14    22    21    1
    15    58    56   ar
    16    86    87    1
    17    17    12   am
    18    17    18    1
    19    14    15    1
    20    20    19    2
    21    59    57   ar
    22     9     7   am
    23    87    90    1
    24    87    88    1
    25    12    13    2
    26     7     8    2
    27    23    21    1
    28    21    18    1
    29    56    57   ar
    30    56    55    1
    31    27    26    2
    32    18    19    1
    33    90    91    1
    34    19    24   am
    35    50    48    1
    36    26    25    1
    37    88    89    2
    38    55    52    1
    39    91    92    1
    40    24    25    1
    41    25    28    1
    42    92    93    1
    43    44    45    1
    44    49    48    1
    45    48    45    1
    46    51    52    1
    47    51    46   am
    48    52    53    1
    49    68    66    1
    50    45    46    1
    51    46    47    2
    52    93    94    1
    53    28    29    1
    54    62    53   am
    55    62    63    1
    56    53    54    2
    57    67    66    1
    58    29    30    1
    59   107   106    2
    60    30    31    1
    61    66    63    1
    62   108   109    1
    63   108   105    1
    64   106   105    1
    65    32    31    1
    66    63    64    1
    67   111   109   ar
    68   111   113   ar
    69   109   110   ar
    70   105   104    1
    71   113   114   ar
    72   104    97   am
    73    64    69   am
    74    64    65    2
    75   110   112   ar
    76    69    70    1
    77   102   101   ar
    78    95    96    1
    79   114   112   ar
    80    97    96    1
    81    97    98    2
    82   101   103   ar
    83   101   100    1
    84    82    81    1
    85    82    83    1
    86    72    71    2
    87    78    81    1
    88    78    77    1
    89    78    79    1
    90    71    77   am
    91    71    70    1
    92    96    99    1
    93    84    83    1
    94    84    85    1
    95    70    73    1
    96    73    74    1
    97   100    99    1
    98    79    80    2
    99    74    76   ar
   100    74    75   ar
   101    36    35    2
   102    35    34    1
   103    43    41    1
   104    34    37    1
   105    34    33    1
   106    37    38    1
   107    41    40    2
   108    41    42    1
   109    40    39    1
   110    38    39    1
