@<TRIPOS>MOLECULE
tmp/2afhD01.pdb
 116 110 0 0 0
SMALL
GASTEIGER

@<TRIPOS>ATOM
      1  N         10.7700    7.1810   52.8390 N.3    49  LYS49      -0.1245
      2  CA         9.5340    7.9220   52.6670 C.3    49  LYS49       0.1561
      3  C          8.5180    7.3970   53.7020 C.2    49  LYS49       0.2260
      4  O          7.7560    8.1770   54.2730 O.2    49  LYS49      -0.2867
      5  CB         9.0140    7.7340   51.2400 C.3    49  LYS49       0.0271
      6  CG         7.7000    8.4460   50.9380 C.3    49  LYS49       0.0035
      7  CD         7.8310    9.9700   51.0500 C.3    49  LYS49       0.0206
      8  CE         6.7500   10.6820   50.2150 C.3    49  LYS49       0.1093
      9  NZ         5.3780   10.2640   50.5960 N.3    49  LYS49      -0.1314
     10  N          9.2320    9.0920   56.8040 N.3    52  GLN52      -0.1231
     11  CA         8.8600   10.5030   56.6800 C.3    52  GLN52       0.1698
     12  C          7.3610   10.7110   56.9140 C.2    52  GLN52       0.2592
     13  O          6.9660   11.6940   57.5470 O.2    52  GLN52      -0.2718
     14  CB         9.2280   11.0450   55.2910 C.3    52  GLN52       0.0381
     15  CG         8.7190   12.4620   55.0000 C.3    52  GLN52       0.0905
     16  CD         9.3640   13.0480   53.7640 C.2    52  GLN52       0.2608
     17  OE1       10.5800   13.2840   53.7400 O.2    52  GLN52      -0.2717
     18  NE2        8.5720   13.2730   52.7270 N.am   52  GLN52      -0.0878
     19  N          6.5270    9.8000   56.4170 N.am   53  GLU53      -0.1979
     20  CA         5.0660    9.9580   56.6070 C.3    53  GLU53       0.1602
     21  C          4.7100    9.9000   58.0780 C.2    53  GLU53       0.2287
     22  O          3.9470   10.7150   58.5740 O.2    53  GLU53      -0.2864
     23  CB         4.2860    8.8930   55.8200 C.3    53  GLU53       0.0415
     24  CG         4.6010    8.9640   54.3420 C.3    53  GLU53       0.1163
     25  CD         3.7220    8.0760   53.4880 C.2    53  GLU53       0.3649
     26  OE1        3.9530    8.0460   52.2530 O.co2  53  GLU53      -0.2457
     27  OE2        2.8080    7.4190   54.0430 O.co2  53  GLU53      -0.2457
     28  N          5.8340   13.1220   59.7250 N.3    56  PHE56      -0.1241
     29  CA         4.9700   14.2750   59.5140 C.3    56  PHE56       0.1605
     30  C          3.6010   14.2150   60.1790 C.2    56  PHE56       0.2264
     31  O          2.9130   15.2290   60.2440 O.2    56  PHE56      -0.2867
     32  CB         4.8430   14.5950   58.0340 C.3    56  PHE56       0.0534
     33  CG         5.9580   15.4560   57.5400 C.ar   56  PHE56      -0.0203
     34  CD1        7.2050   14.9000   57.2380 C.ar   56  PHE56      -0.0042
     35  CD2        5.7930   16.8380   57.4370 C.ar   56  PHE56      -0.0042
     36  CE1        8.2740   15.7140   56.8390 C.ar   56  PHE56      -0.0003
     37  CE2        6.8520   17.6560   57.0350 C.ar   56  PHE56      -0.0003
     38  CZ         8.0950   17.0910   56.7350 C.ar   56  PHE56      -0.0000
     39  N         13.0440   23.0670   50.0130 N.3   391  HIS391     -0.1241
     40  CA        12.4600   22.8370   51.3310 C.3   391  HIS391      0.1621
     41  C         12.6000   24.0980   52.1530 C.2   391  HIS391      0.2264
     42  O         13.7000   24.4140   52.6310 O.2   391  HIS391     -0.2867
     43  CB        13.1610   21.6710   52.0540 C.3   391  HIS391      0.0745
     44  CG        13.2280   20.4220   51.2430 C.ar  391  HIS391      0.0817
     45  ND1       12.1030   19.8070   50.7360 N.ar  391  HIS391     -0.2268
     46  CD2       14.2850   19.7250   50.7670 C.ar  391  HIS391      0.1154
     47  CE1       12.4660   18.7940   49.9750 C.ar  391  HIS391      0.1986
     48  NE2       13.7860   18.7220   49.9760 N.ar  391  HIS391     -0.2212
     49  N          2.8710   32.0690   55.3400 N.3   402  LYS402     -0.1245
     50  CA         3.0300   31.0260   54.3360 C.3   402  LYS402      0.1561
     51  C          2.3580   31.4490   53.0350 C.2   402  LYS402      0.2260
     52  O          2.9210   31.2320   51.9530 O.2   402  LYS402     -0.2867
     53  CB         2.4340   29.6970   54.8280 C.3   402  LYS402      0.0271
     54  CG         2.4700   28.5800   53.7780 C.3   402  LYS402      0.0035
     55  CD         1.9380   27.3010   54.3620 C.3   402  LYS402      0.0206
     56  CE         2.1280   26.1330   53.4220 C.3   402  LYS402      0.1093
     57  NZ         1.5460   26.4090   52.0980 N.3   402  LYS402     -0.1314
     58  N          8.2370   23.9810   48.6060 N.3   419  THR419     -0.1203
     59  CA         7.0900   23.7200   49.4690 C.3   419  THR419      0.1994
     60  C          7.4490   24.4580   50.7590 C.2   419  THR419      0.2618
     61  O          8.5850   24.3520   51.2670 O.2   419  THR419     -0.2717
     62  CB         6.8840   22.2150   49.7480 C.3   419  THR419      0.1784
     63  OG1        6.6730   21.5200   48.5000 O.3   419  THR419     -0.2211
     64  CG2        5.7000   22.0060   50.6970 C.3   419  THR419      0.0376
     65  N          6.4970   25.2170   51.2790 N.am  420  VAL420     -0.1965
     66  CA         6.7120   25.9820   52.5080 C.3   420  VAL420      0.1727
     67  C          6.1000   25.2230   53.6550 C.2   420  VAL420      0.2616
     68  O          4.9240   24.8580   53.5840 O.2   420  VAL420     -0.2715
     69  CB         6.0620   27.3820   52.4070 C.3   420  VAL420      0.0290
     70  CG1        6.2590   28.1630   53.7190 C.3   420  VAL420      0.0023
     71  CG2        6.6700   28.1300   51.2200 C.3   420  VAL420      0.0023
     72  N          6.8930   25.0140   54.7120 N.am  421  TYR421     -0.1960
     73  CA         6.4700   24.2920   55.9040 C.3   421  TYR421      0.1771
     74  C          6.4510   25.1280   57.1670 C.2   421  TYR421      0.2619
     75  O          7.4680   25.7150   57.5160 O.2   421  TYR421     -0.2715
     76  CB         7.4340   23.1100   56.1800 C.3   421  TYR421      0.0574
     77  CG         7.5030   22.0760   55.0880 C.ar  421  TYR421     -0.0198
     78  CD1        8.4280   22.1920   54.0560 C.ar  421  TYR421     -0.0009
     79  CD2        6.5860   21.0110   55.0410 C.ar  421  TYR421     -0.0009
     80  CE1        8.4400   21.2860   52.9930 C.ar  421  TYR421      0.0417
     81  CE2        6.5900   20.0960   53.9790 C.ar  421  TYR421      0.0417
     82  CZ         7.5210   20.2470   52.9600 C.ar  421  TYR421      0.1957
     83  OH         7.5320   19.3900   51.8860 O.3   421  TYR421     -0.2866
     84  N          5.3240   25.1910   57.8670 N.am  422  ILE422     -0.1977
     85  CA         5.2590   25.9600   59.1030 C.3   422  ILE422      0.1596
     86  C          4.9260   24.9680   60.2100 C.2   422  ILE422      0.2287
     87  O          4.3060   23.9470   59.9490 O.2   422  ILE422     -0.2864
     88  CB         4.2180   27.0860   59.0540 C.3   422  ILE422      0.0276
     89  CG1        2.8240   26.5210   58.7550 C.3   422  ILE422      0.0022
     90  CG2        4.6310   28.1020   57.9810 C.3   422  ILE422      0.0022
     91  CD1        1.7750   27.6060   58.6210 C.3   422  ILE422      0.0001
     92  N          6.7910   22.8840   61.5230 N.3   424  LYS424     -0.1245
     93  CA         7.6440   21.6830   61.4400 C.3   424  LYS424      0.1561
     94  C          9.0450   21.9970   61.9970 C.2   424  LYS424      0.2260
     95  O          9.4920   23.1410   61.9690 O.2   424  LYS424     -0.2867
     96  CB         7.7390   21.1980   59.9890 C.3   424  LYS424      0.0271
     97  CG         6.3520   21.0540   59.3180 C.3   424  LYS424      0.0035
     98  CD         5.4940   20.0580   60.0770 C.3   424  LYS424      0.0206
     99  CE         4.0610   20.0540   59.5580 C.3   424  LYS424      0.1093
    100  NZ         3.2420   19.0320   60.3300 N.3   424  LYS424     -0.1314
    101  N         13.0800   15.2810   54.9020 N.3   432  LEU432     -0.1245
    102  CA        12.9950   15.9230   53.5950 C.3   432  LEU432      0.1561
    103  C         14.3230   15.9020   52.8260 C.2   432  LEU432      0.2260
    104  O         14.3200   15.6440   51.6160 O.2   432  LEU432     -0.2867
    105  CB        12.4960   17.3710   53.7280 C.3   432  LEU432      0.0270
    106  CG        11.0910   17.5730   54.2960 C.3   432  LEU432      0.0019
    107  CD1       10.7880   19.0700   54.4220 C.3   432  LEU432      0.0001
    108  CD2       10.0820   16.8990   53.3870 C.3   432  LEU432      0.0001
    109  N         14.0230   13.8370   49.3810 N.3   436  ASP436     -0.1239
    110  CA        14.0370   14.6880   48.1880 C.3   436  ASP436      0.1674
    111  C         15.3220   15.4830   48.3940 C.2   436  ASP436      0.2266
    112  O         15.3020   16.6640   48.7110 O.2   436  ASP436     -0.2867
    113  CB        12.7960   15.5970   48.2340 C.3   436  ASP436      0.1410
    114  CG        12.6450   16.4620   46.9980 C.2   436  ASP436      0.3668
    115  OD1       13.4140   16.2980   46.0360 O.co2 436  ASP436     -0.2456
    116  OD2       11.7380   17.3090   47.0080 O.co2 436  ASP436     -0.2456
@<TRIPOS>BOND
     1   115   114   ar
     2   114   116   ar
     3   114   113    1
     4   110   113    1
     5   110   111    1
     6   110   109    1
     7   111   112    2
     8    63    62    1
     9    58    59    1
    10    59    62    1
    11    59    60    1
    12    62    64    1
    13    47    48   ar
    14    47    45   ar
    15    48    46   ar
    16    39    40    1
    17     8     9    1
    18     8     7    1
    19    45    44   ar
    20    60    61    2
    21    60    65   am
    22    46    44   ar
    23     6     7    1
    24     6     5    1
    25    71    69    1
    26     5     2    1
    27    44    43    1
    28    65    66    1
    29    40    43    1
    30    40    41    1
    31   104   103    2
    32    83    82    1
    33    52    51    2
    34    57    56    1
    35    41    42    2
    36    26    25   ar
    37    69    66    1
    38    69    70    1
    39    66    67    1
    40     2     1    1
    41     2     3    1
    42    18    16   am
    43   103   102    1
    44    82    80   ar
    45    82    81   ar
    46    80    78   ar
    47    51    50    1
    48   108   106    1
    49    56    55    1
    50    25    27   ar
    51    25    24    1
    52    68    67    2
    53   102   105    1
    54   102   101    1
    55    67    72   am
    56     3     4    2
    57   105   106    1
    58    17    16    2
    59    16    15    1
    60    54    55    1
    61    54    53    1
    62    81    79   ar
    63    78    77   ar
    64   106   107    1
    65    50    53    1
    66    50    49    1
    67    24    23    1
    68    72    73    1
    69    15    14    1
    70    79    77   ar
    71    77    76    1
    72    14    11    1
    73    23    20    1
    74    73    76    1
    75    73    74    1
    76    19    20    1
    77    19    12   am
    78    20    21    1
    79    11    10    1
    80    11    12    1
    81    38    36   ar
    82    38    37   ar
    83    36    34   ar
    84    12    13    2
    85    37    35   ar
    86    74    75    2
    87    74    84   am
    88    34    33   ar
    89    35    33   ar
    90    33    32    1
    91    84    85    1
    92    90    88    1
    93    32    29    1
    94    21    22    2
    95    91    89    1
    96    89    88    1
    97    88    85    1
    98    85    86    1
    99    97    96    1
   100    97    98    1
   101    29    28    1
   102    29    30    1
   103    99    98    1
   104    99   100    1
   105    87    86    2
   106    96    93    1
   107    30    31    2
   108    93    92    1
   109    93    94    1
   110    95    94    2
