@<TRIPOS>MOLECULE
tmp/2afhD02.pdb
 97 91 0 0 0
SMALL
GASTEIGER

@<TRIPOS>ATOM
      1  N          2.4210   45.5330   85.6730 N.3   162  ASN162     -0.1240
      2  CA         2.0280   46.9220   85.8880 C.3   162  ASN162      0.1653
      3  C          1.8490   47.2750   87.3580 C.2   162  ASN162      0.2266
      4  O          2.4360   48.2430   87.8550 O.2   162  ASN162     -0.2867
      5  CB         0.7430   47.2180   85.1290 C.3   162  ASN162      0.1155
      6  CG         0.3870   48.6830   85.1460 C.2   162  ASN162      0.2627
      7  OD1        1.2020   49.5280   84.7930 O.2   162  ASN162     -0.2716
      8  ND2       -0.8380   48.9930   85.5470 N.am  162  ASN162     -0.0877
      9  N          4.3290   49.5380   89.8180 N.3   166  ASN166     -0.1240
     10  CA         3.6950   50.7110   90.4260 C.3   166  ASN166      0.1653
     11  C          3.8950   50.6810   91.9490 C.2   166  ASN166      0.2266
     12  O          4.2450   51.6980   92.5570 O.2   166  ASN166     -0.2867
     13  CB         2.1970   50.7390   90.1280 C.3   166  ASN166      0.1155
     14  CG         1.9010   51.0970   88.6960 C.2   166  ASN166      0.2627
     15  OD1        2.7310   51.6980   88.0140 O.2   166  ASN166     -0.2716
     16  ND2        0.7000   50.7480   88.2300 N.am  166  ASN166     -0.0877
     17  N          7.4160   51.4570   93.1030 N.3   169  LYS169     -0.1245
     18  CA         7.6300   52.9000   93.0580 C.3   169  LYS169      0.1561
     19  C          6.8630   53.6130   94.1840 C.2   169  LYS169      0.2260
     20  O          7.3950   54.4820   94.8860 O.2   169  LYS169     -0.2867
     21  CB         7.1730   53.4390   91.7040 C.3   169  LYS169      0.0271
     22  CG         8.2280   53.2800   90.6070 C.3   169  LYS169      0.0035
     23  CD         7.7430   53.7960   89.2940 C.3   169  LYS169      0.0206
     24  CE         8.9210   53.8640   88.3020 C.3   169  LYS169      0.1093
     25  NZ         8.5020   54.4580   86.9930 N.3   169  LYS169     -0.1314
     26  N         10.2180   57.2610   91.3990 N.3   176  ASP176     -0.1225
     27  CA         8.9860   57.3220   90.6370 C.3   176  ASP176      0.1805
     28  C          9.1980   57.7070   89.1820 C.2   176  ASP176      0.2597
     29  O          8.4370   57.2850   88.3050 O.2   176  ASP176     -0.2718
     30  CB         8.0250   58.3140   91.2880 C.3   176  ASP176      0.1424
     31  CG         6.6480   58.2640   90.6660 C.2   176  ASP176      0.3668
     32  OD1        5.9900   57.2050   90.7570 O.co2 176  ASP176     -0.2456
     33  OD2        6.2290   59.2740   90.0670 O.co2 176  ASP176     -0.2456
     34  N         10.2310   58.5020   88.9150 N.am  177  GLU177     -0.1979
     35  CA        10.5020   58.9200   87.5400 C.3   177  GLU177      0.1602
     36  C         11.4400   57.9570   86.8000 C.2   177  GLU177      0.2287
     37  O         11.6680   58.1120   85.5980 O.2   177  GLU177     -0.2864
     38  CB        11.1270   60.3190   87.4970 C.3   177  GLU177      0.0415
     39  CG        11.0550   61.1040   88.7990 C.3   177  GLU177      0.1163
     40  CD        12.0050   60.5810   89.8740 C.2   177  GLU177      0.3649
     41  OE1       13.2410   60.5580   89.6360 O.co2 177  GLU177     -0.2457
     42  OE2       11.5050   60.1940   90.9600 O.co2 177  GLU177     -0.2457
     43  N          7.7480   47.7710   80.4870 N.3   182  PHE182     -0.1241
     44  CA         7.5960   46.3260   80.7060 C.3   182  PHE182      0.1605
     45  C          6.7460   45.6410   79.6470 C.2   182  PHE182      0.2264
     46  O          6.0800   46.2840   78.8160 O.2   182  PHE182     -0.2867
     47  CB         6.9310   46.0940   82.0640 C.3   182  PHE182      0.0534
     48  CG         5.5210   46.6310   82.1350 C.ar  182  PHE182     -0.0203
     49  CD1        5.2870   47.9390   82.5430 C.ar  182  PHE182     -0.0042
     50  CD2        4.4370   45.8440   81.7490 C.ar  182  PHE182     -0.0042
     51  CE1        3.9900   48.4620   82.5550 C.ar  182  PHE182     -0.0003
     52  CE2        3.1360   46.3550   81.7530 C.ar  182  PHE182     -0.0003
     53  CZ         2.9110   47.6660   82.1600 C.ar  182  PHE182     -0.0000
     54  N          6.1580   47.6150   74.2560 N.3   202  GLY202     -0.1225
     55  CA         6.0730   48.0100   75.6580 C.3   202  GLY202      0.1811
     56  C          6.9170   49.2450   75.9480 C.2   202  GLY202      0.2280
     57  O          6.4840   50.1660   76.6620 O.2   202  GLY202     -0.2866
     58  N          5.2580   52.3140   74.0810 N.3   205  ARG205     -0.1231
     59  CA         4.0800   52.8290   74.7550 C.3   205  ARG205      0.1694
     60  C          4.4760   53.5560   76.0510 C.2   205  ARG205      0.2592
     61  O          3.9120   54.5940   76.3710 O.2   205  ARG205     -0.2718
     62  CB         3.0790   51.6870   75.0130 C.3   205  ARG205      0.0321
     63  CG         2.4600   51.6860   76.3800 C.3   205  ARG205      0.0489
     64  CD         1.3100   50.6450   76.4740 C.3   205  ARG205      0.2205
     65  NE         0.1520   50.9810   75.7290 N.pl3 205  ARG205     -0.0865
     66  CZ        -0.6130   50.3800   74.8320 C.cat 205  ARG205      0.5346
     67  NH1       -1.6150   51.1470   74.4510 N.pl3 205  ARG205      0.1354
     68  NH2       -0.4550   49.1670   74.3200 N.pl3 205  ARG205      0.1354
     69  N          5.4850   53.0560   76.7590 N.am  206  TYR206     -0.1976
     70  CA         5.9210   53.6840   78.0080 C.3   206  TYR206      0.1639
     71  C          6.3500   55.1510   77.8180 C.2   206  TYR206      0.2290
     72  O          6.0270   56.0230   78.6170 O.2   206  TYR206     -0.2864
     73  CB         7.0860   52.8980   78.5910 C.3   206  TYR206      0.0560
     74  CG         7.5410   53.3720   79.9520 C.ar  206  TYR206     -0.0198
     75  CD1        6.9540   52.8670   81.1140 C.ar  206  TYR206     -0.0009
     76  CD2        8.5360   54.3350   80.0870 C.ar  206  TYR206     -0.0009
     77  CE1        7.3450   53.3100   82.3680 C.ar  206  TYR206      0.0417
     78  CE2        8.9280   54.7910   81.3450 C.ar  206  TYR206      0.0417
     79  CZ         8.3250   54.2720   82.4800 C.ar  206  TYR206      0.1957
     80  OH         8.6770   54.7410   83.7280 O.3   206  TYR206     -0.2866
     81  N          2.6630   56.8820   75.0510 N.3   209  LEU209     -0.1231
     82  CA         1.2130   56.7650   75.2330 C.3   209  LEU209      0.1693
     83  C          0.4850   57.9490   75.8700 C.2   209  LEU209      0.2591
     84  O         -0.5390   58.4160   75.3510 O.2   209  LEU209     -0.2718
     85  CB         0.8570   55.5070   76.0390 C.3   209  LEU209      0.0284
     86  CG        -0.6540   55.2480   76.0920 C.3   209  LEU209      0.0019
     87  CD1       -1.1390   54.8000   74.7130 C.3   209  LEU209      0.0001
     88  CD2       -0.9620   54.2080   77.1340 C.3   209  LEU209      0.0001
     89  N          1.0150   58.4160   76.9940 N.am  210  LYS210     -0.1980
     90  CA         0.4370   59.5270   77.7410 C.3   210  LYS210      0.1596
     91  C          0.7520   60.9500   77.2720 C.2   210  LYS210      0.2287
     92  O          0.1780   61.9200   77.7850 O.2   210  LYS210     -0.2864
     93  CB         0.8190   59.3710   79.2250 C.3   210  LYS210      0.0298
     94  CG         0.3090   58.0690   79.8410 C.3   210  LYS210      0.0038
     95  CD        -1.1970   57.9010   79.5390 C.3   210  LYS210      0.0206
     96  CE        -1.7640   56.5510   79.9900 C.3   210  LYS210      0.1093
     97  NZ        -3.1530   56.3650   79.4760 N.3   210  LYS210     -0.1314
@<TRIPOS>BOND
     1    58    59    1
     2    54    55    1
     3    68    66    1
     4    67    66    1
     5    87    86    1
     6    59    62    1
     7    59    60    1
     8    66    65    2
     9    62    63    1
    10    81    82    1
    11    82    83    1
    12    82    85    1
    13    84    83    2
    14    55    56    1
    15    65    64    1
    16    83    89   am
    17    56    57    2
    18    85    86    1
    19    60    61    2
    20    60    69   am
    21    86    88    1
    22    63    64    1
    23    69    70    1
    24    89    90    1
    25    91    90    1
    26    91    92    2
    27    90    93    1
    28    71    70    1
    29    71    72    2
    30    70    73    1
    31    73    74    1
    32    46    45    2
    33    93    94    1
    34    97    96    1
    35    95    94    1
    36    95    96    1
    37    45    44    1
    38    74    76   ar
    39    74    75   ar
    40    76    78   ar
    41    43    44    1
    42    44    47    1
    43    75    77   ar
    44    78    79   ar
    45    50    52   ar
    46    50    48   ar
    47    52    53   ar
    48    47    48    1
    49    48    49   ar
    50    53    51   ar
    51    77    79   ar
    52    79    80    1
    53    49    51   ar
    54     7     6    2
    55     5     6    1
    56     5     2    1
    57     6     8   am
    58    37    36    2
    59     1     2    1
    60     2     3    1
    61    36    35    1
    62    25    24    1
    63     3     4    2
    64    38    35    1
    65    38    39    1
    66    35    34    1
    67    15    14    2
    68    16    14   am
    69    24    23    1
    70    29    28    2
    71    14    13    1
    72    39    40    1
    73    34    28   am
    74    28    27    1
    75    23    22    1
    76    41    40   ar
    77     9    10    1
    78    40    42   ar
    79    33    31   ar
    80    13    10    1
    81    10    11    1
    82    22    21    1
    83    27    30    1
    84    27    26    1
    85    31    32   ar
    86    31    30    1
    87    21    18    1
    88    11    12    2
    89    18    17    1
    90    18    19    1
    91    19    20    2
