@<TRIPOS>MOLECULE
tmp/2afuB00.pdb
 143 141 0 0 0
SMALL
GASTEIGER

@<TRIPOS>ATOM
      1  N         -9.4190  -21.5620   67.6370 N.3   127  ASP127     -0.1239
      2  CA        -9.1430  -20.8460   66.3990 C.3   127  ASP127      0.1674
      3  C         -9.6820  -21.5130   65.1270 C.2   127  ASP127      0.2266
      4  O         -8.9210  -22.1150   64.3750 O.2   127  ASP127     -0.2867
      5  CB        -7.6110  -20.6780   66.3690 C.3   127  ASP127      0.1410
      6  CG        -7.0920  -19.9770   65.1410 C.2   127  ASP127      0.3668
      7  OD1       -7.8530  -19.2540   64.4690 O.co2 127  ASP127     -0.2456
      8  OD2       -5.8790  -20.1430   64.8690 O.co2 127  ASP127     -0.2456
      9  N         -9.4070  -17.8960   56.4670 N.3   161  GLN161     -0.1231
     10  CA        -8.7900  -16.8120   57.2120 C.3   161  GLN161      0.1698
     11  C         -7.2850  -17.0660   57.2980 C.2   161  GLN161      0.2592
     12  O         -6.4730  -16.1510   57.1390 O.2   161  GLN161     -0.2718
     13  CB        -9.3690  -16.7250   58.6260 C.3   161  GLN161      0.0381
     14  CG        -8.7810  -15.5930   59.4600 C.3   161  GLN161      0.0905
     15  CD        -7.8970  -16.0810   60.5950 C.2   161  GLN161      0.2608
     16  OE1       -7.2700  -17.1360   60.4980 O.2   161  GLN161     -0.2717
     17  NE2       -7.8300  -15.3030   61.6740 N.am  161  GLN161     -0.0878
     18  N         -6.9310  -18.3250   57.5400 N.am  162  GLU162     -0.1979
     19  CA        -5.5440  -18.7490   57.6930 C.3   162  GLU162      0.1602
     20  C         -4.7590  -18.8000   56.3890 C.2   162  GLU162      0.2287
     21  O         -5.3050  -19.0680   55.3220 O.2   162  GLU162     -0.2864
     22  CB        -5.5030  -20.1320   58.3560 C.3   162  GLU162      0.0415
     23  CG        -6.2160  -20.2100   59.7020 C.3   162  GLU162      0.1163
     24  CD        -5.3620  -19.7160   60.8540 C.2   162  GLU162      0.3649
     25  OE1       -4.3120  -19.0940   60.5930 O.co2 162  GLU162     -0.2457
     26  OE2       -5.7430  -19.9400   62.0270 O.co2 162  GLU162     -0.2457
     27  N          1.6510  -16.3440   56.3580 N.3   167  TRP167     -0.1241
     28  CA         0.7880  -15.1840   56.5120 C.3   167  TRP167      0.1605
     29  C          1.3550  -13.9450   55.8350 C.2   167  TRP167      0.2264
     30  O          2.4350  -13.4630   56.1800 O.2   167  TRP167     -0.2867
     31  CB         0.5300  -14.9000   57.9940 C.3   167  TRP167      0.0550
     32  CG        -0.5270  -13.8590   58.2170 C.ar  167  TRP167      0.0003
     33  CD1       -0.3960  -12.5030   58.0650 C.ar  167  TRP167      0.0946
     34  CD2       -1.8960  -14.0900   58.5770 C.ar  167  TRP167      0.0152
     35  NE1       -1.5960  -11.8810   58.3050 N.ar  167  TRP167     -0.2442
     36  CE2       -2.5360  -12.8290   58.6200 C.ar  167  TRP167      0.0810
     37  CE3       -2.6460  -15.2400   58.8640 C.ar  167  TRP167      0.0012
     38  CZ2       -3.8930  -12.6850   58.9410 C.ar  167  TRP167      0.0191
     39  CZ3       -3.9970  -15.0980   59.1820 C.ar  167  TRP167      0.0001
     40  CH2       -4.6060  -13.8280   59.2170 C.ar  167  TRP167      0.0015
     41  N        -12.2650  -14.3330   67.7050 N.3   208  ASP208     -0.1225
     42  CA       -11.1540  -15.1310   67.2160 C.3   208  ASP208      0.1805
     43  C        -10.2810  -15.5580   68.3860 C.2   208  ASP208      0.2597
     44  O        -10.0700  -14.7900   69.3210 O.2   208  ASP208     -0.2718
     45  CB       -10.3440  -14.3000   66.2080 C.3   208  ASP208      0.1424
     46  CG        -9.3590  -15.1320   65.4130 C.2   208  ASP208      0.3668
     47  OD1       -9.4590  -16.3750   65.4350 O.co2 208  ASP208     -0.2456
     48  OD2       -8.4880  -14.5390   64.7470 O.co2 208  ASP208     -0.2456
     49  N         -9.7940  -16.7950   68.3370 N.am  209  LEU209     -0.1979
     50  CA        -8.9240  -17.3270   69.3790 C.3   209  LEU209      0.1596
     51  C         -9.5660  -17.2850   70.7610 C.2   209  LEU209      0.2287
     52  O         -8.9550  -16.8290   71.7270 O.2   209  LEU209     -0.2864
     53  CB        -7.6040  -16.5500   69.4010 C.3   209  LEU209      0.0297
     54  CG        -6.9440  -16.3270   68.0340 C.3   209  LEU209      0.0022
     55  CD1       -5.6000  -15.6250   68.2350 C.3   209  LEU209      0.0001
     56  CD2       -6.7530  -17.6580   67.3140 C.3   209  LEU209      0.0001
     57  N         -5.2740   -1.3820   72.9000 N.3   259  TYR259     -0.1241
     58  CA        -4.1290   -1.9250   72.1820 C.3   259  TYR259      0.1605
     59  C         -3.7650   -0.9470   71.0690 C.2   259  TYR259      0.2264
     60  O         -4.5300   -0.7570   70.1240 O.2   259  TYR259     -0.2867
     61  CB        -4.5340   -3.2900   71.6060 C.3   259  TYR259      0.0534
     62  CG        -3.4290   -4.1020   70.9760 C.ar  259  TYR259     -0.0201
     63  CD1       -3.0210   -3.8680   69.6630 C.ar  259  TYR259     -0.0009
     64  CD2       -2.8200   -5.1430   71.6830 C.ar  259  TYR259     -0.0009
     65  CE1       -2.0370   -4.6590   69.0670 C.ar  259  TYR259      0.0417
     66  CE2       -1.8380   -5.9360   71.1010 C.ar  259  TYR259      0.0417
     67  CZ        -1.4530   -5.6930   69.7970 C.ar  259  TYR259      0.1957
     68  OH        -0.4930   -6.4870   69.2200 O.3   259  TYR259     -0.2866
     69  N         -2.7620   -2.9640   65.7050 N.3   262  VAL262     -0.1231
     70  CA        -3.8470   -3.8140   65.2600 C.3   262  VAL262      0.1692
     71  C         -3.2760   -5.2230   65.0670 C.2   262  VAL262      0.2592
     72  O         -2.0700   -5.3920   64.8800 O.2   262  VAL262     -0.2718
     73  CB        -4.4200   -3.2680   63.9210 C.3   262  VAL262      0.0266
     74  CG1       -3.6460   -3.8390   62.7430 C.3   262  VAL262      0.0020
     75  CG2       -5.8920   -3.5640   63.8170 C.3   262  VAL262      0.0020
     76  N         -4.1360   -6.2330   65.1350 N.am  263  ILE263     -0.1966
     77  CA        -3.7040   -7.6110   64.9380 C.3   263  ILE263      0.1727
     78  C         -4.4100   -8.1130   63.6830 C.2   263  ILE263      0.2616
     79  O         -5.6420   -8.1700   63.6370 O.2   263  ILE263     -0.2715
     80  CB        -4.0710   -8.5020   66.1540 C.3   263  ILE263      0.0290
     81  CG1       -3.3160   -8.0170   67.4010 C.3   263  ILE263      0.0022
     82  CG2       -3.7110   -9.9480   65.8680 C.3   263  ILE263      0.0023
     83  CD1       -3.6740   -8.7420   68.6880 C.3   263  ILE263      0.0001
     84  N         -3.6260   -8.4460   62.6590 N.am  264  GLN264     -0.1963
     85  CA        -4.1710   -8.9260   61.3900 C.3   264  GLN264      0.1733
     86  C         -5.2730   -9.9560   61.6150 C.2   264  GLN264      0.2616
     87  O         -5.0740  -10.9240   62.3340 O.2   264  GLN264     -0.2715
     88  CB        -3.0660   -9.5500   60.5300 C.3   264  GLN264      0.0408
     89  CG        -1.9810   -8.5800   60.0970 C.3   264  GLN264      0.0908
     90  CD        -2.5410   -7.4110   59.3190 C.2   264  GLN264      0.2608
     91  OE1       -3.0910   -7.5790   58.2290 O.2   264  GLN264     -0.2717
     92  NE2       -2.4150   -6.2140   59.8820 N.am  264  GLN264     -0.0878
     93  N         -6.4280   -9.7380   60.9920 N.am  265  ASP265     -0.1971
     94  CA        -7.5600  -10.6450   61.1240 C.3   265  ASP265      0.1709
     95  C         -8.6220  -10.2770   60.0830 C.2   265  ASP265      0.2293
     96  O         -8.4660   -9.2980   59.3500 O.2   265  ASP265     -0.2864
     97  CB        -8.1550  -10.5550   62.5340 C.3   265  ASP265      0.1436
     98  CG        -8.7320  -11.8780   63.0110 C.2   265  ASP265      0.3671
     99  OD1       -9.1240  -12.7080   62.1590 O.co2 265  ASP265     -0.2456
    100  OD2       -8.8040  -12.0840   64.2400 O.co2 265  ASP265     -0.2456
    101  N        -10.5000  -10.5260   70.1770 N.3   281  ILE281     -0.1245
    102  CA        -9.3900  -11.4640   70.0570 C.3   281  ILE281      0.1561
    103  C         -8.5210  -11.1670   71.2780 C.2   281  ILE281      0.2260
    104  O         -8.3210  -10.0080   71.6400 O.2   281  ILE281     -0.2867
    105  CB        -8.5860  -11.2460   68.7390 C.3   281  ILE281      0.0252
    106  CG1       -7.5410  -12.3550   68.5870 C.3   281  ILE281      0.0019
    107  CG2       -7.9320   -9.8600   68.7320 C.3   281  ILE281      0.0019
    108  CD1       -6.8340  -12.3780   67.2330 C.3   281  ILE281      0.0001
    109  N         -2.0650  -14.0690   72.8230 N.3   285  PHE285     -0.1241
    110  CA        -2.7820  -15.1480   72.1500 C.3   285  PHE285      0.1605
    111  C         -2.7930  -16.3430   73.1030 C.2   285  PHE285      0.2264
    112  O         -1.9390  -16.4450   73.9860 O.2   285  PHE285     -0.2867
    113  CB        -2.0540  -15.5510   70.8620 C.3   285  PHE285      0.0534
    114  CG        -2.3020  -14.6360   69.6860 C.ar  285  PHE285     -0.0203
    115  CD1       -3.0590  -13.4790   69.8160 C.ar  285  PHE285     -0.0042
    116  CD2       -1.7950  -14.9600   68.4310 C.ar  285  PHE285     -0.0042
    117  CE1       -3.3120  -12.6600   68.7140 C.ar  285  PHE285     -0.0003
    118  CE2       -2.0440  -14.1460   67.3240 C.ar  285  PHE285     -0.0003
    119  CZ        -2.8060  -12.9960   67.4690 C.ar  285  PHE285     -0.0000
    120  N         -1.8520  -21.5120   70.8620 N.3   289  TRP289     -0.1227
    121  CA        -1.9360  -20.9430   69.5160 C.3   289  TRP289      0.1737
    122  C         -1.0970  -21.6540   68.4530 C.2   289  TRP289      0.2595
    123  O          0.1160  -21.8060   68.5840 O.2   289  TRP289     -0.2718
    124  CB        -1.5550  -19.4620   69.5300 C.3   289  TRP289      0.0564
    125  CG        -1.7780  -18.7630   68.2090 C.ar  289  TRP289      0.0003
    126  CD1       -2.9710  -18.3030   67.7040 C.ar  289  TRP289      0.0946
    127  CD2       -0.7790  -18.4230   67.2420 C.ar  289  TRP289      0.0152
    128  NE1       -2.7680  -17.6940   66.4880 N.ar  289  TRP289     -0.2442
    129  CE2       -1.4340  -17.7550   66.1800 C.ar  289  TRP289      0.0810
    130  CE3        0.6060  -18.6170   67.1680 C.ar  289  TRP289      0.0012
    131  CZ2       -0.7490  -17.2790   65.0610 C.ar  289  TRP289      0.0191
    132  CZ3        1.2870  -18.1450   66.0540 C.ar  289  TRP289      0.0001
    133  CH2        0.6070  -17.4820   65.0130 C.ar  289  TRP289      0.0015
    134  N         -1.7700  -22.0730   67.3900 N.am  290  HIS290     -0.1975
    135  CA        -1.1300  -22.7520   66.2790 C.3   290  HIS290      0.1656
    136  C         -0.2470  -23.9420   66.6370 C.2   290  HIS290      0.2291
    137  O          0.8280  -24.1370   66.0640 O.2   290  HIS290     -0.2864
    138  CB        -0.3590  -21.7390   65.4270 C.3   290  HIS290      0.0771
    139  CG        -1.2500  -20.8850   64.5760 C.ar  290  HIS290      0.0820
    140  ND1       -0.7860  -20.1500   63.5090 N.ar  290  HIS290     -0.2267
    141  CD2       -2.5880  -20.6770   64.6210 C.ar  290  HIS290      0.1154
    142  CE1       -1.7980  -19.5290   62.9290 C.ar  290  HIS290      0.1986
    143  NE2       -2.9020  -19.8320   63.5850 N.ar  290  HIS290     -0.2212
@<TRIPOS>BOND
     1    21    20    2
     2    29    30    2
     3    29    28    1
     4    27    28    1
     5    20    19    1
     6     9    10    1
     7    28    31    1
     8    12    11    2
     9    10    11    1
    10    10    13    1
    11    11    18   am
    12    18    19    1
    13    19    22    1
    14    31    32    1
    15    33    32   ar
    16    33    35   ar
    17    32    34   ar
    18    91    90    2
    19    35    36   ar
    20    22    23    1
    21    34    36   ar
    22    34    37   ar
    23    36    38   ar
    24    13    14    1
    25    37    39   ar
    26    38    40   ar
    27    39    40   ar
    28    90    92   am
    29    90    89    1
    30    96    95    2
    31    14    15    1
    32    23    24    1
    33    95    94    1
    34    89    88    1
    35    16    15    2
    36    88    85    1
    37    25    24   ar
    38    15    17   am
    39    24    26   ar
    40    93    94    1
    41    93    86   am
    42    94    97    1
    43    85    86    1
    44    85    84    1
    45    86    87    2
    46    99    98   ar
    47    97    98    1
    48    84    78   am
    49    74    73    1
    50   142   140   ar
    51   142   143   ar
    52    98   100   ar
    53   140   139   ar
    54   143   141   ar
    55    79    78    2
    56    78    77    1
    57    75    73    1
    58    73    70    1
    59     4     3    2
    60     7     6   ar
    61   139   141   ar
    62   139   138    1
    63    48    46   ar
    64     8     6   ar
    65    72    71    2
    66    77    76    1
    67    77    80    1
    68   133   131   ar
    69   133   132   ar
    70   131   129   ar
    71    71    76   am
    72    71    70    1
    73     3     2    1
    74     6     5    1
    75    70    69    1
    76    46    47   ar
    77    46    45    1
    78   138   135    1
    79    82    80    1
    80   132   130   ar
    81   137   136    2
    82    80    81    1
    83   129   128   ar
    84   129   127   ar
    85    45    42    1
    86   135   136    1
    87   135   134    1
    88     5     2    1
    89     2     1    1
    90   128   126   ar
    91   130   127   ar
    92    42    41    1
    93    42    43    1
    94   108   106    1
    95   127   125   ar
    96    56    54    1
    97   118   119   ar
    98   118   116   ar
    99   134   122   am
   100    81    83    1
   101   119   117   ar
   102   126   125   ar
   103    54    55    1
   104    54    53    1
   105   125   124    1
   106    49    43   am
   107    49    50    1
   108    43    44    2
   109   116   114   ar
   110   122   123    2
   111   122   121    1
   112   106   105    1
   113   117   115   ar
   114   107   105    1
   115   105   102    1
   116    65    63   ar
   117    65    67   ar
   118    68    67    1
   119    50    53    1
   120    50    51    1
   121   121   124    1
   122   121   120    1
   123    63    62   ar
   124   114   115   ar
   125   114   113    1
   126    67    66   ar
   127   102   101    1
   128   102   103    1
   129    60    59    2
   130    51    52    2
   131   113   110    1
   132    62    61    1
   133    62    64   ar
   134    59    58    1
   135    66    64   ar
   136   103   104    2
   137    61    58    1
   138   110   109    1
   139   110   111    1
   140    58    57    1
   141   111   112    2
