@<TRIPOS>MOLECULE
tmp/2afwB00.pdb
 134 132 0 0 0
SMALL
GASTEIGER

@<TRIPOS>ATOM
      1  N        -13.9560  -17.0790   61.8080 N.3   108  HIS108     -0.1241
      2  CA       -13.5650  -17.8820   60.6630 C.3   108  HIS108      0.1621
      3  C        -13.8480  -19.3700   60.9700 C.2   108  HIS108      0.2264
      4  O        -13.6570  -19.8140   62.1170 O.2   108  HIS108     -0.2867
      5  CB       -12.0790  -17.6680   60.2650 C.3   108  HIS108      0.0745
      6  CG       -11.0620  -18.3490   61.1480 C.ar  108  HIS108      0.0817
      7  ND1      -10.5370  -19.5910   60.8560 N.ar  108  HIS108     -0.2268
      8  CD2      -10.4370  -17.9330   62.2770 C.ar  108  HIS108      0.1154
      9  CE1       -9.6320  -19.9160   61.7670 C.ar  108  HIS108      0.1986
     10  NE2       -9.5490  -18.9300   62.6420 N.ar  108  HIS108     -0.2212
     11  N         -9.4050  -21.6460   67.6420 N.3   127  ASP127     -0.1239
     12  CA        -9.0560  -20.9570   66.3860 C.3   127  ASP127      0.1674
     13  C         -9.6640  -21.6290   65.1460 C.2   127  ASP127      0.2266
     14  O         -8.9410  -22.2580   64.3920 O.2   127  ASP127     -0.2867
     15  CB        -7.5120  -20.9910   66.3700 C.3   127  ASP127      0.1410
     16  CG        -6.8780  -20.2330   65.2310 C.2   127  ASP127      0.3668
     17  OD1       -7.5950  -19.4940   64.5330 O.co2 127  ASP127     -0.2456
     18  OD2       -5.6460  -20.4230   65.0600 O.co2 127  ASP127     -0.2456
     19  N         -9.4240  -17.7760   56.4340 N.3   163  GLU163     -0.1231
     20  CA        -8.7430  -16.7610   57.2150 C.3   163  GLU163      0.1699
     21  C         -7.2610  -17.0690   57.2910 C.2   163  GLU163      0.2592
     22  O         -6.4450  -16.1650   57.1670 O.2   163  GLU163     -0.2718
     23  CB        -9.3420  -16.6810   58.6210 C.3   163  GLU163      0.0402
     24  CG        -8.5770  -15.7390   59.6000 C.3   163  GLU163      0.1161
     25  CD        -7.3710  -16.4340   60.2540 C.2   163  GLU163      0.3649
     26  OE1       -7.4780  -17.6100   60.5760 O.co2 163  GLU163     -0.2457
     27  OE2       -6.3260  -15.7990   60.4780 O.co2 163  GLU163     -0.2457
     28  N         -6.8930  -18.3360   57.4740 N.am  164  GLU164     -0.1979
     29  CA        -5.5080  -18.6990   57.6540 C.3   164  GLU164      0.1602
     30  C         -4.7050  -18.7360   56.3750 C.2   164  GLU164      0.2287
     31  O         -5.2220  -19.0070   55.2950 O.2   164  GLU164     -0.2864
     32  CB        -5.4020  -20.1150   58.2980 C.3   164  GLU164      0.0415
     33  CG        -6.1730  -20.2390   59.6120 C.3   164  GLU164      0.1163
     34  CD        -5.4030  -19.7580   60.8300 C.2   164  GLU164      0.3649
     35  OE1       -4.4110  -18.9830   60.7070 O.co2 164  GLU164     -0.2457
     36  OE2       -5.7600  -20.1660   61.9600 O.co2 164  GLU164     -0.2457
     37  N          1.8280  -16.3870   56.2720 N.3   169  TRP169     -0.1241
     38  CA         0.9880  -15.2300   56.4900 C.3   169  TRP169      0.1605
     39  C          1.5470  -14.0260   55.7440 C.2   169  TRP169      0.2264
     40  O          2.6320  -13.5240   56.0570 O.2   169  TRP169     -0.2867
     41  CB         0.9370  -14.9710   57.9940 C.3   169  TRP169      0.0550
     42  CG        -0.0350  -13.9780   58.4340 C.ar  169  TRP169      0.0003
     43  CD1        0.2210  -12.6780   58.7800 C.ar  169  TRP169      0.0946
     44  CD2       -1.4410  -14.1740   58.6330 C.ar  169  TRP169      0.0152
     45  NE1       -0.9330  -12.0560   59.1780 N.ar  169  TRP169     -0.2442
     46  CE2       -1.9730  -12.9530   59.0960 C.ar  169  TRP169      0.0810
     47  CE3       -2.3040  -15.2650   58.4720 C.ar  169  TRP169      0.0012
     48  CZ2       -3.3330  -12.7900   59.3960 C.ar  169  TRP169      0.0191
     49  CZ3       -3.6470  -15.1030   58.7740 C.ar  169  TRP169      0.0001
     50  CH2       -4.1580  -13.8790   59.2300 C.ar  169  TRP169      0.0015
     51  N        -12.3870  -14.3500   67.7560 N.3   210  ASP210     -0.1225
     52  CA       -11.2530  -15.1420   67.2800 C.3   210  ASP210      0.1805
     53  C        -10.3910  -15.5500   68.4770 C.2   210  ASP210      0.2597
     54  O        -10.2100  -14.7920   69.4390 O.2   210  ASP210     -0.2718
     55  CB       -10.4260  -14.2780   66.2910 C.3   210  ASP210      0.1424
     56  CG        -9.4580  -15.0840   65.4360 C.2   210  ASP210      0.3668
     57  OD1       -9.4300  -16.3370   65.5430 O.co2 210  ASP210     -0.2456
     58  OD2       -8.7150  -14.4500   64.6270 O.co2 210  ASP210     -0.2456
     59  N         -9.8950  -16.7870   68.4400 N.am  211  LEU211     -0.1979
     60  CA        -9.0240  -17.3140   69.4940 C.3   211  LEU211      0.1596
     61  C         -9.6360  -17.2940   70.8760 C.2   211  LEU211      0.2287
     62  O         -8.9910  -16.9220   71.8520 O.2   211  LEU211     -0.2864
     63  CB        -7.6860  -16.5860   69.5140 C.3   211  LEU211      0.0297
     64  CG        -7.0250  -16.3980   68.1290 C.3   211  LEU211      0.0022
     65  CD1       -5.6370  -15.7530   68.3110 C.3   211  LEU211      0.0001
     66  CD2       -6.8290  -17.7480   67.4130 C.3   211  LEU211      0.0001
     67  N         -4.1330   -6.2220   65.1590 N.3   265  ILE265     -0.1231
     68  CA        -3.6490   -7.5760   65.0710 C.3   265  ILE265      0.1692
     69  C         -4.3370   -7.9680   63.7790 C.2   265  ILE265      0.2592
     70  O         -5.5670   -7.9860   63.7480 O.2   265  ILE265     -0.2718
     71  CB        -4.1650   -8.3880   66.2660 C.3   265  ILE265      0.0266
     72  CG1       -3.3860   -7.9620   67.5200 C.3   265  ILE265      0.0019
     73  CG2       -4.0210   -9.8790   65.9850 C.3   265  ILE265      0.0020
     74  CD1       -3.7520   -8.6990   68.7940 C.3   265  ILE265      0.0001
     75  N         -3.5650   -8.2360   62.7220 N.am  266  GLN266     -0.1966
     76  CA        -4.1240   -8.6090   61.4140 C.3   266  GLN266      0.1733
     77  C         -5.1420   -9.7530   61.5840 C.2   266  GLN266      0.2616
     78  O         -4.8380  -10.7460   62.2350 O.2   266  GLN266     -0.2715
     79  CB        -3.0100   -9.0630   60.4570 C.3   266  GLN266      0.0408
     80  CG        -2.2630   -7.9210   59.7750 C.3   266  GLN266      0.0908
     81  CD        -3.1560   -7.1770   58.7650 C.2   266  GLN266      0.2608
     82  OE1       -3.4580   -7.6780   57.6780 O.2   266  GLN266     -0.2717
     83  NE2       -3.5990   -5.9890   59.1410 N.am  266  GLN266     -0.0878
     84  N         -6.3270   -9.5920   61.0160 N.am  267  ASP267     -0.1971
     85  CA        -7.3670  -10.6220   61.1320 C.3   267  ASP267      0.1709
     86  C         -8.4520  -10.3040   60.1140 C.2   267  ASP267      0.2293
     87  O         -8.3130   -9.3530   59.3220 O.2   267  ASP267     -0.2864
     88  CB        -7.9070  -10.6270   62.5820 C.3   267  ASP267      0.1436
     89  CG        -8.5960  -11.9330   62.9740 C.2   267  ASP267      0.3671
     90  OD1       -8.8410  -12.7930   62.0990 O.co2 267  ASP267     -0.2456
     91  OD2       -8.8930  -12.0720   64.1820 O.co2 267  ASP267     -0.2456
     92  N        -10.5660  -10.5910   70.1820 N.3   283  ILE283     -0.1245
     93  CA        -9.4340  -11.4880   70.0980 C.3   283  ILE283      0.1561
     94  C         -8.5920  -11.1490   71.3240 C.2   283  ILE283      0.2260
     95  O         -8.4030   -9.9750   71.6590 O.2   283  ILE283     -0.2867
     96  CB        -8.6490  -11.2990   68.7800 C.3   283  ILE283      0.0252
     97  CG1       -7.5570  -12.3670   68.6890 C.3   283  ILE283      0.0019
     98  CG2       -7.9390   -9.8930   68.7190 C.3   283  ILE283      0.0019
     99  CD1       -6.8200  -12.3450   67.3500 C.3   283  ILE283      0.0001
    100  N         -2.3610  -14.1850   72.9620 N.3   287  PHE287     -0.1241
    101  CA        -3.1320  -15.2480   72.3230 C.3   287  PHE287      0.1605
    102  C         -3.0380  -16.4500   73.2680 C.2   287  PHE287      0.2264
    103  O         -2.1900  -16.5030   74.1580 O.2   287  PHE287     -0.2867
    104  CB        -2.4570  -15.6900   71.0390 C.3   287  PHE287      0.0534
    105  CG        -2.5580  -14.7030   69.8960 C.ar  287  PHE287     -0.0203
    106  CD1       -3.3550  -13.5730   69.9830 C.ar  287  PHE287     -0.0042
    107  CD2       -1.8900  -14.9700   68.7210 C.ar  287  PHE287     -0.0042
    108  CE1       -3.4840  -12.7090   68.8750 C.ar  287  PHE287     -0.0003
    109  CE2       -2.0160  -14.1110   67.6130 C.ar  287  PHE287     -0.0003
    110  CZ        -2.8180  -12.9860   67.7080 C.ar  287  PHE287     -0.0000
    111  N         -1.8000  -21.5260   70.8940 N.3   291  TRP291     -0.1227
    112  CA        -1.9600  -20.9900   69.5360 C.3   291  TRP291      0.1737
    113  C         -1.0550  -21.6370   68.4930 C.2   291  TRP291      0.2595
    114  O          0.1760  -21.7170   68.6480 O.2   291  TRP291     -0.2718
    115  CB        -1.7190  -19.4660   69.5570 C.3   291  TRP291      0.0564
    116  CG        -1.9190  -18.7760   68.2240 C.ar  291  TRP291      0.0003
    117  CD1       -3.1050  -18.3830   67.6820 C.ar  291  TRP291      0.0946
    118  CD2       -0.8940  -18.3370   67.3190 C.ar  291  TRP291      0.0152
    119  NE1       -2.8850  -17.7130   66.4910 N.ar  291  TRP291     -0.2442
    120  CE2       -1.5380  -17.6670   66.2540 C.ar  291  TRP291      0.0810
    121  CE3        0.5080  -18.4470   67.3050 C.ar  291  TRP291      0.0012
    122  CZ2       -0.8320  -17.0990   65.1860 C.ar  291  TRP291      0.0191
    123  CZ3        1.2120  -17.8870   66.2340 C.ar  291  TRP291      0.0001
    124  CH2        0.5380  -17.2200   65.1920 C.ar  291  TRP291      0.0015
    125  N         -1.6760  -22.0860   67.3930 N.am  292  HIS292     -0.1975
    126  CA        -0.9800  -22.7200   66.2900 C.3   292  HIS292      0.1656
    127  C         -0.1080  -23.9010   66.6260 C.2   292  HIS292      0.2291
    128  O          0.9210  -24.1400   66.0050 O.2   292  HIS292     -0.2864
    129  CB        -0.2440  -21.6770   65.4200 C.3   292  HIS292      0.0771
    130  CG        -1.1930  -20.8600   64.6060 C.ar  292  HIS292      0.0820
    131  ND1       -0.7840  -19.9950   63.6160 N.ar  292  HIS292     -0.2267
    132  CD2       -2.5480  -20.7680   64.6520 C.ar  292  HIS292      0.1154
    133  CE1       -1.8440  -19.4070   63.0770 C.ar  292  HIS292      0.1986
    134  NE2       -2.9290  -19.8570   63.6900 N.ar  292  HIS292     -0.2212
@<TRIPOS>BOND
     1    31    30    2
     2    39    40    2
     3    39    38    1
     4    37    38    1
     5    30    29    1
     6    19    20    1
     7    38    41    1
     8    22    21    2
     9    20    21    1
    10    20    23    1
    11    21    28   am
    12    28    29    1
    13    29    32    1
    14    82    81    2
    15    41    42    1
    16    32    33    1
    17    42    44   ar
    18    42    43   ar
    19    47    44   ar
    20    47    49   ar
    21    23    24    1
    22    44    46   ar
    23    81    83   am
    24    81    80    1
    25    49    50   ar
    26    43    45   ar
    27    46    45   ar
    28    46    48   ar
    29    50    48   ar
    30    87    86    2
    31    24    25    1
    32    33    34    1
    33    80    79    1
    34    86    85    1
    35    25    27   ar
    36    25    26   ar
    37     5     2    1
    38     5     6    1
    39    79    76    1
    40     2     3    1
    41     2     1    1
    42    35    34   ar
    43    34    36   ar
    44     7     6   ar
    45     7     9   ar
    46     3     4    2
    47    84    85    1
    48    84    77   am
    49    85    88    1
    50     6     8   ar
    51    76    77    1
    52    76    75    1
    53    77    78    2
    54     9    10   ar
    55    90    89   ar
    56     8    10   ar
    57    88    89    1
    58    75    69   am
    59    89    91   ar
    60   133   131   ar
    61   133   134   ar
    62   131   130   ar
    63   134   132   ar
    64    70    69    2
    65    69    68    1
    66    14    13    2
    67    17    16   ar
    68   130   132   ar
    69   130   129    1
    70    58    56   ar
    71    18    16   ar
    72    68    67    1
    73    68    71    1
    74    13    12    1
    75   122   124   ar
    76   122   120   ar
    77   124   123   ar
    78    16    15    1
    79   129   126    1
    80    56    57   ar
    81    56    55    1
    82    73    71    1
    83   128   127    2
    84   123   121   ar
    85   120   119   ar
    86   120   118   ar
    87    71    72    1
    88   126   127    1
    89   126   125    1
    90    55    52    1
    91    15    12    1
    92    12    11    1
    93   119   117   ar
    94    52    51    1
    95    52    53    1
    96   121   118   ar
    97   118   116   ar
    98    99    97    1
    99   125   113   am
   100    66    64    1
   101    72    74    1
   102   109   110   ar
   103   109   107   ar
   104   117   116   ar
   105   110   108   ar
   106    64    65    1
   107    64    63    1
   108   116   115    1
   109    59    53   am
   110    59    60    1
   111    53    54    2
   112   113   114    2
   113   113   112    1
   114    97    96    1
   115    98    96    1
   116   107   105   ar
   117    96    93    1
   118   108   106   ar
   119    60    63    1
   120    60    61    1
   121   112   115    1
   122   112   111    1
   123   105   106   ar
   124   105   104    1
   125    93    92    1
   126    93    94    1
   127    61    62    2
   128   104   101    1
   129    94    95    2
   130   101   100    1
   131   101   102    1
   132   102   103    2
