@<TRIPOS>MOLECULE
tmp/2afxB00.pdb
 124 122 0 0 0
SMALL
GASTEIGER

@<TRIPOS>ATOM
      1  N         -9.2860  -21.5510   67.6150 N.3   127  ASP127     -0.1239
      2  CA        -8.9620  -20.8270   66.3610 C.3   127  ASP127      0.1674
      3  C         -9.5660  -21.4860   65.1040 C.2   127  ASP127      0.2266
      4  O         -8.8170  -22.0750   64.3230 O.2   127  ASP127     -0.2867
      5  CB        -7.4250  -20.8610   66.3030 C.3   127  ASP127      0.1410
      6  CG        -6.8100  -20.0330   65.2000 C.2   127  ASP127      0.3668
      7  OD1       -7.5200  -19.2870   64.5160 O.co2 127  ASP127     -0.2456
      8  OD2       -5.5780  -20.1650   65.0490 O.co2 127  ASP127     -0.2456
      9  N         -9.4260  -17.7320   56.4200 N.3   163  GLU163     -0.1231
     10  CA        -8.7830  -16.6780   57.2090 C.3   163  GLU163      0.1699
     11  C         -7.2780  -16.9290   57.2630 C.2   163  GLU163      0.2592
     12  O         -6.4650  -16.0130   57.0960 O.2   163  GLU163     -0.2718
     13  CB        -9.3460  -16.6680   58.6350 C.3   163  GLU163      0.0402
     14  CG        -8.7730  -15.5130   59.5520 C.3   163  GLU163      0.1161
     15  CD        -7.5040  -15.8230   60.3380 C.2   163  GLU163      0.3649
     16  OE1       -6.9060  -16.9180   60.2070 O.co2 163  GLU163     -0.2457
     17  OE2       -7.0880  -14.9160   61.1300 O.co2 163  GLU163     -0.2457
     18  N         -6.9010  -18.1950   57.4600 N.am  164  GLU164     -0.1979
     19  CA        -5.5010  -18.5460   57.6180 C.3   164  GLU164      0.1602
     20  C         -4.7000  -18.5880   56.3260 C.2   164  GLU164      0.2287
     21  O         -5.2240  -18.8860   55.2640 O.2   164  GLU164     -0.2864
     22  CB        -5.3780  -19.9320   58.3010 C.3   164  GLU164      0.0415
     23  CG        -6.1380  -20.0190   59.6210 C.3   164  GLU164      0.1163
     24  CD        -5.3370  -19.5730   60.8440 C.2   164  GLU164      0.3649
     25  OE1       -4.2720  -18.8870   60.7390 O.co2 164  GLU164     -0.2457
     26  OE2       -5.7910  -19.9120   61.9480 O.co2 164  GLU164     -0.2457
     27  N          1.8310  -16.0790   56.1840 N.3   169  TRP169     -0.1241
     28  CA         0.9640  -14.9230   56.2270 C.3   169  TRP169      0.1605
     29  C          1.5260  -13.7120   55.4920 C.2   169  TRP169      0.2264
     30  O          2.5860  -13.1980   55.8610 O.2   169  TRP169     -0.2867
     31  CB         0.6940  -14.5090   57.6750 C.3   169  TRP169      0.0550
     32  CG        -0.4540  -13.5800   57.7920 C.ar  169  TRP169      0.0003
     33  CD1       -0.4660  -12.2140   57.5270 C.ar  169  TRP169      0.0946
     34  CD2       -1.7890  -13.9230   58.2020 C.ar  169  TRP169      0.0152
     35  NE1       -1.7300  -11.7100   57.7630 N.ar  169  TRP169     -0.2442
     36  CE2       -2.5540  -12.7320   58.1770 C.ar  169  TRP169      0.0810
     37  CE3       -2.4140  -15.1310   58.5960 C.ar  169  TRP169      0.0012
     38  CZ2       -3.9190  -12.6990   58.5350 C.ar  169  TRP169      0.0191
     39  CZ3       -3.7690  -15.0860   58.9600 C.ar  169  TRP169      0.0001
     40  CH2       -4.5020  -13.8850   58.9260 C.ar  169  TRP169      0.0015
     41  N        -12.3120  -14.3090   67.7780 N.3   210  ASP210     -0.1225
     42  CA       -11.1760  -15.1320   67.3340 C.3   210  ASP210      0.1805
     43  C        -10.3330  -15.5460   68.5390 C.2   210  ASP210      0.2597
     44  O        -10.1890  -14.7850   69.5070 O.2   210  ASP210     -0.2718
     45  CB       -10.2900  -14.3350   66.3310 C.3   210  ASP210      0.1424
     46  CG        -9.4480  -15.2380   65.4160 C.2   210  ASP210      0.3668
     47  OD1       -9.3390  -16.4580   65.6830 O.co2 210  ASP210     -0.2456
     48  OD2       -8.8700  -14.7230   64.4140 O.co2 210  ASP210     -0.2456
     49  N         -9.8090  -16.7700   68.4980 N.am  211  LEU211     -0.1979
     50  CA        -8.9290  -17.2900   69.5610 C.3   211  LEU211      0.1596
     51  C         -9.5890  -17.2580   70.9420 C.2   211  LEU211      0.2287
     52  O         -8.9760  -16.8470   71.9420 O.2   211  LEU211     -0.2864
     53  CB        -7.6080  -16.5170   69.5930 C.3   211  LEU211      0.0297
     54  CG        -6.8710  -16.4350   68.2320 C.3   211  LEU211      0.0022
     55  CD1       -5.4920  -15.7510   68.4530 C.3   211  LEU211      0.0001
     56  CD2       -6.6700  -17.8260   67.6070 C.3   211  LEU211      0.0001
     57  N         -4.0070   -6.3510   65.0070 N.3   265  ILE265     -0.1231
     58  CA        -3.5300   -7.6960   64.8590 C.3   265  ILE265      0.1692
     59  C         -4.2380   -8.0330   63.5720 C.2   265  ILE265      0.2592
     60  O         -5.4580   -7.8570   63.5180 O.2   265  ILE265     -0.2718
     61  CB        -4.0630   -8.5350   66.0300 C.3   265  ILE265      0.0266
     62  CG1       -3.2990   -8.1590   67.3130 C.3   265  ILE265      0.0019
     63  CG2       -3.9580  -10.0030   65.7050 C.3   265  ILE265      0.0020
     64  CD1       -3.8180   -8.8020   68.5760 C.3   265  ILE265      0.0001
     65  N         -3.5190   -8.5120   62.5500 N.am  266  GLN266     -0.1966
     66  CA        -4.1710   -8.8300   61.2820 C.3   266  GLN266      0.1733
     67  C         -5.2260   -9.9340   61.4990 C.2   266  GLN266      0.2616
     68  O         -4.9700  -10.9210   62.1870 O.2   266  GLN266     -0.2715
     69  CB        -3.1470   -9.3120   60.2400 C.3   266  GLN266      0.0408
     70  CG        -2.0960   -8.2700   59.8580 C.3   266  GLN266      0.0908
     71  CD        -2.7170   -7.0110   59.2510 C.2   266  GLN266      0.2608
     72  OE1       -3.4110   -7.0740   58.2250 O.2   266  GLN266     -0.2717
     73  NE2       -2.4650   -5.8540   59.8860 N.am  266  GLN266     -0.0878
     74  N         -6.3980   -9.7460   60.9050 N.am  267  ASP267     -0.1971
     75  CA        -7.4770  -10.7230   61.0060 C.3   267  ASP267      0.1709
     76  C         -8.5610  -10.3470   59.9830 C.2   267  ASP267      0.2293
     77  O         -8.4090   -9.3970   59.2040 O.2   267  ASP267     -0.2864
     78  CB        -8.0200  -10.7420   62.4480 C.3   267  ASP267      0.1436
     79  CG        -8.6880  -12.0700   62.8130 C.2   267  ASP267      0.3671
     80  OD1       -8.9050  -12.9230   61.9080 O.co2 267  ASP267     -0.2456
     81  OD2       -8.9950  -12.2640   64.0070 O.co2 267  ASP267     -0.2456
     82  N        -10.4950  -10.6070   70.2340 N.3   283  ILE283     -0.1245
     83  CA        -9.3860  -11.5380   70.1480 C.3   283  ILE283      0.1561
     84  C         -8.5450  -11.1500   71.3540 C.2   283  ILE283      0.2260
     85  O         -8.3660   -9.9570   71.6510 O.2   283  ILE283     -0.2867
     86  CB        -8.5990  -11.3860   68.8030 C.3   283  ILE283      0.0252
     87  CG1       -7.5410  -12.4810   68.6930 C.3   283  ILE283      0.0019
     88  CG2       -7.8880   -9.9940   68.7120 C.3   283  ILE283      0.0019
     89  CD1       -6.7690  -12.3950   67.3810 C.3   283  ILE283      0.0001
     90  N         -2.2370  -14.1990   73.0540 N.3   287  PHE287     -0.1241
     91  CA        -2.9940  -15.2610   72.4160 C.3   287  PHE287      0.1605
     92  C         -2.9350  -16.4670   73.3440 C.2   287  PHE287      0.2264
     93  O         -2.0910  -16.5390   74.2290 O.2   287  PHE287     -0.2867
     94  CB        -2.3100  -15.7010   71.1320 C.3   287  PHE287      0.0534
     95  CG        -2.4220  -14.7210   69.9820 C.ar  287  PHE287     -0.0203
     96  CD1       -3.2170  -13.5890   70.0510 C.ar  287  PHE287     -0.0042
     97  CD2       -1.7470  -14.9950   68.7950 C.ar  287  PHE287     -0.0042
     98  CE1       -3.3480  -12.7330   68.9410 C.ar  287  PHE287     -0.0003
     99  CE2       -1.8790  -14.1390   67.6760 C.ar  287  PHE287     -0.0003
    100  CZ        -2.6820  -13.0150   67.7600 C.ar  287  PHE287     -0.0000
    101  N         -1.6730  -21.4800   70.8410 N.3   291  TRP291     -0.1227
    102  CA        -1.8610  -20.9410   69.4880 C.3   291  TRP291      0.1737
    103  C         -0.9600  -21.5780   68.4180 C.2   291  TRP291      0.2595
    104  O          0.2810  -21.6620   68.5620 O.2   291  TRP291     -0.2718
    105  CB        -1.6630  -19.4090   69.5090 C.3   291  TRP291      0.0564
    106  CG        -1.9150  -18.7480   68.1650 C.ar  291  TRP291      0.0003
    107  CD1       -3.1230  -18.3900   67.6560 C.ar  291  TRP291      0.0946
    108  CD2       -0.9280  -18.2770   67.2240 C.ar  291  TRP291      0.0152
    109  NE1       -2.9650  -17.7120   66.4700 N.ar  291  TRP291     -0.2442
    110  CE2       -1.6310  -17.6230   66.1810 C.ar  291  TRP291      0.0810
    111  CE3        0.4750  -18.3470   67.1590 C.ar  291  TRP291      0.0012
    112  CZ2       -0.9810  -17.0270   65.0850 C.ar  291  TRP291      0.0191
    113  CZ3        1.1240  -17.7600   66.0630 C.ar  291  TRP291      0.0001
    114  CH2        0.3940  -17.1050   65.0420 C.ar  291  TRP291      0.0015
    115  N         -1.5980  -21.9900   67.3180 N.am  292  HIS292     -0.1975
    116  CA        -0.9330  -22.6380   66.2000 C.3   292  HIS292      0.1656
    117  C         -0.0330  -23.8060   66.5500 C.2   292  HIS292      0.2291
    118  O          1.0480  -23.9710   65.9880 O.2   292  HIS292     -0.2864
    119  CB        -0.1960  -21.6220   65.3120 C.3   292  HIS292      0.0771
    120  CG        -1.1370  -20.7970   64.4910 C.ar  292  HIS292      0.0820
    121  ND1       -0.7110  -19.9530   63.4880 N.ar  292  HIS292     -0.2267
    122  CD2       -2.4880  -20.6740   64.5470 C.ar  292  HIS292      0.1154
    123  CE1       -1.7610  -19.3410   62.9560 C.ar  292  HIS292      0.1986
    124  NE2       -2.8510  -19.7560   63.5840 N.ar  292  HIS292     -0.2212
@<TRIPOS>BOND
     1    21    20    2
     2    29    30    2
     3    29    28    1
     4    27    28    1
     5    28    31    1
     6    20    19    1
     7     9    10    1
     8    12    11    2
     9    10    11    1
    10    10    13    1
    11    11    18   am
    12    18    19    1
    13    33    35   ar
    14    33    32   ar
    15    19    22    1
    16    31    32    1
    17    35    36   ar
    18    32    34   ar
    19    36    34   ar
    20    36    38   ar
    21    34    37   ar
    22    72    71    2
    23    22    23    1
    24    38    40   ar
    25    37    39   ar
    26    13    14    1
    27    40    39   ar
    28    77    76    2
    29    71    70    1
    30    71    73   am
    31    14    15    1
    32    23    24    1
    33    70    69    1
    34    76    75    1
    35    16    15   ar
    36    69    66    1
    37    15    17   ar
    38    25    24   ar
    39    24    26   ar
    40    74    75    1
    41    74    67   am
    42    75    78    1
    43    66    67    1
    44    66    65    1
    45    67    68    2
    46    80    79   ar
    47    78    79    1
    48    65    59   am
    49    79    81   ar
    50   123   121   ar
    51   123   124   ar
    52   121   120   ar
    53    60    59    2
    54    59    58    1
    55   124   122   ar
    56     4     3    2
    57    48    46   ar
    58   120   122   ar
    59   120   119    1
    60     7     6   ar
    61    58    57    1
    62    58    61    1
    63   114   112   ar
    64   114   113   ar
    65     8     6   ar
    66   112   110   ar
    67     3     2    1
    68     6     5    1
    69   119   116    1
    70    46    47   ar
    71    46    45    1
    72    63    61    1
    73   118   117    2
    74    61    62    1
    75   113   111   ar
    76   110   109   ar
    77   110   108   ar
    78   116   117    1
    79   116   115    1
    80     5     2    1
    81    45    42    1
    82     2     1    1
    83   109   107   ar
    84   111   108   ar
    85   108   106   ar
    86    62    64    1
    87   115   103   am
    88    42    41    1
    89    42    43    1
    90    89    87    1
    91    56    54    1
    92   107   106   ar
    93    99   100   ar
    94    99    97   ar
    95   100    98   ar
    96   106   105    1
    97    54    55    1
    98    54    53    1
    99   103   104    2
   100   103   102    1
   101    49    43   am
   102    49    50    1
   103    43    44    2
   104    87    86    1
   105    88    86    1
   106    97    95   ar
   107    86    83    1
   108    98    96   ar
   109   102   105    1
   110   102   101    1
   111    50    53    1
   112    50    51    1
   113    95    96   ar
   114    95    94    1
   115    83    82    1
   116    83    84    1
   117    51    52    2
   118    94    91    1
   119    84    85    2
   120    91    90    1
   121    91    92    1
   122    92    93    2
