@<TRIPOS>MOLECULE
tmp/2afzA00.pdb
 110 107 0 0 0
SMALL
GASTEIGER

@<TRIPOS>ATOM
      1  N        -23.3290    2.6110   18.1690 N.3   127  ASP127     -0.1239
      2  CA       -22.5540    2.5200   19.4010 C.3   127  ASP127      0.1674
      3  C        -23.4130    2.5080   20.6850 C.2   127  ASP127      0.2266
      4  O        -23.4690    3.5090   21.3780 O.2   127  ASP127     -0.2867
      5  CB       -21.6190    3.7550   19.3110 C.3   127  ASP127      0.1410
      6  CG       -20.6480    3.9290   20.4790 C.2   127  ASP127      0.3668
      7  OD1      -20.4020    3.0190   21.2660 O.co2 127  ASP127     -0.2456
      8  OD2      -20.0830    5.0410   20.5710 O.co2 127  ASP127     -0.2456
      9  N        -20.0410    1.0160   29.4110 N.3   163  GLU163     -0.1231
     10  CA       -18.8330    0.8930   28.6070 C.3   163  GLU163      0.1699
     11  C        -18.2250    2.2840   28.4400 C.2   163  GLU163      0.2592
     12  O        -16.9930    2.4490   28.4760 O.2   163  GLU163     -0.2718
     13  CB       -19.1630    0.3160   27.2230 C.3   163  GLU163      0.0402
     14  CG       -17.9210    0.0400   26.3280 C.3   163  GLU163      0.1161
     15  CD       -17.5320    1.2240   25.3820 C.2   163  GLU163      0.3649
     16  OE1      -18.2250    2.2350   25.3900 O.co2 163  GLU163     -0.2457
     17  OE2      -16.5220    1.1300   24.6300 O.co2 163  GLU163     -0.2457
     18  N        -19.1020    3.2800   28.2650 N.am  164  GLU164     -0.1979
     19  CA       -18.6240    4.6470   28.0270 C.3   164  GLU164      0.1602
     20  C        -18.1550    5.4220   29.2570 C.2   164  GLU164      0.2287
     21  O        -18.6380    5.2300   30.3680 O.2   164  GLU164     -0.2864
     22  CB       -19.7230    5.4920   27.3780 C.3   164  GLU164      0.0415
     23  CG       -20.3210    4.8850   26.1130 C.3   164  GLU164      0.1163
     24  CD       -19.5190    5.1700   24.8680 C.2   164  GLU164      0.3649
     25  OE1      -18.3600    5.6730   24.9440 O.co2 164  GLU164     -0.2457
     26  OE2      -20.0660    4.8510   23.7950 O.co2 164  GLU164     -0.2457
     27  N        -18.9500   -3.8990   18.2820 N.3   210  ASP210     -0.1225
     28  CA       -19.0370   -2.4980   18.7000 C.3   210  ASP210      0.1805
     29  C        -18.9070   -1.6290   17.4380 C.2   210  ASP210      0.2597
     30  O        -18.2130   -1.9840   16.4900 O.2   210  ASP210     -0.2718
     31  CB       -17.8850   -2.1730   19.6950 C.3   210  ASP210      0.1424
     32  CG       -18.1350   -0.9190   20.5410 C.2   210  ASP210      0.3668
     33  OD1      -19.1340   -0.2200   20.3110 O.co2 210  ASP210     -0.2456
     34  OD2      -17.2950   -0.6170   21.4610 O.co2 210  ASP210     -0.2456
     35  N        -19.6250   -0.5080   17.4420 N.am  211  LEU211     -0.1979
     36  CA       -19.5780    0.4870   16.3520 C.3   211  LEU211      0.1596
     37  C        -19.9310   -0.0900   14.9980 C.2   211  LEU211      0.2287
     38  O        -19.2800    0.1820   14.0060 O.2   211  LEU211     -0.2864
     39  CB       -18.1660    1.1330   16.2890 C.3   211  LEU211      0.0297
     40  CG       -17.6150    1.5890   17.6290 C.3   211  LEU211      0.0022
     41  CD1      -16.2760    2.3260   17.3900 C.3   211  LEU211      0.0001
     42  CD2      -18.6280    2.5020   18.3660 C.3   211  LEU211      0.0001
     43  N         -7.0570   -0.8970   21.2700 N.3   265  ILE265     -0.1231
     44  CA        -8.2960   -0.1470   21.2940 C.3   265  ILE265      0.1692
     45  C         -8.9130   -0.4610   22.6610 C.2   265  ILE265      0.2592
     46  O         -8.9860   -1.6310   23.0510 O.2   265  ILE265     -0.2718
     47  CB        -9.2400   -0.5770   20.1760 C.3   265  ILE265      0.0266
     48  CG1       -8.6280   -0.1810   18.8230 C.3   265  ILE265      0.0019
     49  CG2      -10.6020    0.1050   20.3600 C.3   265  ILE265      0.0020
     50  CD1       -9.4730   -0.4420   17.6370 C.3   265  ILE265      0.0001
     51  N         -9.2880    0.5660   23.4130 N.am  266  GLN266     -0.1966
     52  CA        -9.9010    0.3300   24.7140 C.3   266  GLN266      0.1733
     53  C        -11.3810    0.0670   24.4650 C.2   266  GLN266      0.2616
     54  O        -12.0710    0.8580   23.8270 O.2   266  GLN266     -0.2715
     55  CB        -9.7390    1.5500   25.6210 C.3   266  GLN266      0.0408
     56  CG        -8.2850    1.7920   26.0450 C.3   266  GLN266      0.0908
     57  CD        -7.7480    0.6200   26.8340 C.2   266  GLN266      0.2608
     58  OE1       -8.3230    0.2380   27.8510 O.2   266  GLN266     -0.2717
     59  NE2       -6.6620    0.0260   26.3630 N.am  266  GLN266     -0.0878
     60  N        -11.8540   -1.0580   24.9860 N.am  267  ASP267     -0.1971
     61  CA       -13.2480   -1.4540   24.8500 C.3   267  ASP267      0.1709
     62  C        -13.5060   -2.5610   25.8910 C.2   267  ASP267      0.2293
     63  O        -12.6020   -2.9680   26.6070 O.2   267  ASP267     -0.2864
     64  CB       -13.5240   -1.9790   23.4380 C.3   267  ASP267      0.1436
     65  CG       -15.0040   -1.8950   23.0500 C.2   267  ASP267      0.3671
     66  OD1      -15.8500   -1.6290   23.9370 O.co2 267  ASP267     -0.2456
     67  OD2      -15.2990   -2.0820   21.8670 O.co2 267  ASP267     -0.2456
     68  N        -14.9060   -4.7220   15.8580 N.3   283  ILE283     -0.1245
     69  CA       -15.0460   -3.2510   15.8510 C.3   283  ILE283      0.1561
     70  C        -14.3040   -2.8020   14.5900 C.2   283  ILE283      0.2260
     71  O        -13.2310   -3.3300   14.2550 O.2   283  ILE283     -0.2867
     72  CB       -14.4210   -2.6270   17.1160 C.3   283  ILE283      0.0252
     73  CG1      -14.7400   -1.1100   17.1910 C.3   283  ILE283      0.0019
     74  CG2      -12.9150   -2.9040   17.1350 C.3   283  ILE283      0.0019
     75  CD1      -14.3460   -0.5000   18.5900 C.3   283  ILE283      0.0001
     76  N        -13.1940    4.0500   12.9380 N.3   287  PHE287     -0.1241
     77  CA       -14.5340    4.0850   13.5280 C.3   287  PHE287      0.1605
     78  C        -15.4770    4.8320   12.5550 C.2   287  PHE287      0.2264
     79  O        -15.0280    5.5690   11.6800 O.2   287  PHE287     -0.2867
     80  CB       -14.5280    4.8780   14.8420 C.3   287  PHE287      0.0534
     81  CG       -13.7090    4.2780   15.9430 C.ar  287  PHE287     -0.0203
     82  CD1      -13.2190    2.9670   15.8520 C.ar  287  PHE287     -0.0042
     83  CD2      -13.4870    5.0100   17.1270 C.ar  287  PHE287     -0.0042
     84  CE1      -12.5350    2.4020   16.9070 C.ar  287  PHE287     -0.0003
     85  CE2      -12.8010    4.4400   18.1910 C.ar  287  PHE287     -0.0003
     86  CZ       -12.3220    3.1240   18.0740 C.ar  287  PHE287     -0.0000
     87  N        -19.0130    8.7400   14.7350 N.3   291  TRP291     -0.1227
     88  CA       -18.6410    8.3700   16.1090 C.3   291  TRP291      0.1737
     89  C        -18.7010    9.5150   17.1400 C.2   291  TRP291      0.2595
     90  O        -18.1110   10.5850   16.9520 O.2   291  TRP291     -0.2718
     91  CB       -17.2390    7.7240   16.0830 C.3   291  TRP291      0.0564
     92  CG       -16.7000    7.2640   17.4370 C.ar  291  TRP291      0.0003
     93  CD1      -16.9170    6.0490   18.0720 C.ar  291  TRP291      0.0946
     94  CD2      -15.7790    7.9780   18.2580 C.ar  291  TRP291      0.0152
     95  NE1      -16.1530    5.9800   19.2320 N.ar  291  TRP291     -0.2442
     96  CE2      -15.4530    7.1470   19.3640 C.ar  291  TRP291      0.0810
     97  CE3      -15.1880    9.2510   18.1680 C.ar  291  TRP291      0.0012
     98  CZ2      -14.5560    7.5500   20.3660 C.ar  291  TRP291      0.0191
     99  CZ3      -14.3110    9.6460   19.1600 C.ar  291  TRP291      0.0001
    100  CH2      -14.0000    8.8000   20.2440 C.ar  291  TRP291      0.0015
    101  N        -19.4500    9.2800   18.2190 N.am  292  HIS292     -0.1975
    102  CA       -19.6260   10.2320   19.3180 C.3   292  HIS292      0.1656
    103  C        -20.1030   11.6010   18.9210 C.2   292  HIS292      0.2291
    104  O        -19.7330   12.6200   19.5180 O.2   292  HIS292     -0.2864
    105  CB       -18.3400   10.3490   20.1480 C.3   292  HIS292      0.0771
    106  CG       -18.0900    9.1200   20.9730 C.ar  292  HIS292      0.0820
    107  ND1      -17.0960    9.0280   21.9250 N.ar  292  HIS292     -0.2267
    108  CD2      -18.7490    7.9360   20.9960 C.ar  292  HIS292      0.1154
    109  CE1      -17.1620    7.8370   22.5040 C.ar  292  HIS292      0.1986
    110  NE2      -18.1570    7.1620   21.9560 N.ar  292  HIS292     -0.2212
@<TRIPOS>BOND
     1    79    78    2
     2    78    77    1
     3    76    77    1
     4    77    80    1
     5    38    37    2
     6    71    70    2
     7    70    69    1
     8    87    88    1
     9    80    81    1
    10    37    36    1
    11    69    68    1
    12    69    72    1
    13    82    81   ar
    14    82    84   ar
    15    81    83   ar
    16    91    88    1
    17    91    92    1
    18    88    89    1
    19    39    36    1
    20    39    40    1
    21    36    35    1
    22    30    29    2
    23    84    86   ar
    24    90    89    2
    25    72    74    1
    26    72    73    1
    27    83    85   ar
    28    89   101   am
    29    73    75    1
    30    41    40    1
    31    92    93   ar
    32    92    94   ar
    33    29    35   am
    34    29    28    1
    35    40    42    1
    36    50    48    1
    37    93    95   ar
    38    86    85   ar
    39    97    94   ar
    40    97    99   ar
    41     1     2    1
    42   101   102    1
    43    94    96   ar
    44    27    28    1
    45    28    31    1
    46    48    47    1
    47   103   102    1
    48   103   104    2
    49    99   100   ar
    50    95    96   ar
    51     5     2    1
    52     5     6    1
    53   102   105    1
    54    96    98   ar
    55     2     3    1
    56    31    32    1
    57   105   106    1
    58    47    49    1
    59    47    44    1
    60   100    98   ar
    61    33    32   ar
    62     6     8   ar
    63     6     7   ar
    64    32    34   ar
    65     3     4    2
    66   106   108   ar
    67   106   107   ar
    68   108   110   ar
    69    43    44    1
    70    44    45    1
    71    67    65   ar
    72   107   109   ar
    73   110   109   ar
    74    45    46    2
    75    45    51   am
    76    65    64    1
    77    65    66   ar
    78    51    52    1
    79    64    61    1
    80    26    24   ar
    81    54    53    2
    82    53    52    1
    83    53    60   am
    84    17    15   ar
    85    52    55    1
    86    61    60    1
    87    61    62    1
    88    24    25   ar
    89    24    23    1
    90    15    16   ar
    91    15    14    1
    92    55    56    1
    93    62    63    2
    94    56    57    1
    95    23    22    1
    96    14    13    1
    97    59    57   am
    98    57    58    2
    99    13    10    1
   100    22    19    1
   101    19    18    1
   102    19    20    1
   103    18    11   am
   104    11    12    2
   105    11    10    1
   106    10     9    1
   107    20    21    2
