@<TRIPOS>MOLECULE
tmp/2ag8A00.pdb
 173 163 0 0 0
SMALL
GASTEIGER

@<TRIPOS>ATOM
      1  N         14.2530   31.1540   22.2830 N.3     5  LEU5       -0.1231
      2  CA        13.2700   30.6180   21.3100 C.3     5  LEU5        0.1693
      3  C         14.0020   29.6350   20.3960 C.2     5  LEU5        0.2593
      4  O         14.6700   30.0610   19.4510 O.2     5  LEU5       -0.2718
      5  CB        12.6510   31.7520   20.4480 C.3     5  LEU5        0.0284
      6  CG        11.1820   31.7310   19.9350 C.3     5  LEU5        0.0019
      7  CD1       11.0050   32.4160   18.5480 C.3     5  LEU5        0.0001
      8  CD2       10.5240   30.3800   19.9050 C.3     5  LEU5        0.0001
      9  N         13.8710   28.3370   20.6540 N.am    6  GLY6       -0.1942
     10  CA        14.6480   27.3380   19.9280 C.3     6  GLY6        0.2014
     11  C         15.5980   26.6830   20.9150 C.2     6  GLY6        0.2639
     12  O         16.3210   27.3830   21.6320 O.2     6  GLY6       -0.2714
     13  N         15.6050   25.3460   20.9600 N.am    7  GLY7       -0.1939
     14  CA        16.4340   24.5970   21.9390 C.3     7  GLY7        0.2014
     15  C         17.5390   23.7570   21.3150 C.2     7  GLY7        0.2639
     16  O         18.0740   22.8680   21.9790 O.2     7  GLY7       -0.2714
     17  N         17.8540   24.0310   20.0370 N.am    8  GLY8       -0.1939
     18  CA        18.9380   23.3790   19.2780 C.3     8  GLY8        0.2014
     19  C         20.3870   23.7200   19.6750 C.2     8  GLY8        0.2638
     20  O         20.6410   24.2460   20.7530 O.2     8  GLY8       -0.2714
     21  N         21.3410   23.4180   18.7960 N.am    9  ASN9       -0.1972
     22  CA        22.7590   23.3670   19.1990 C.3     9  ASN9        0.1688
     23  C         23.3860   24.6830   19.6680 C.2     9  ASN9        0.2292
     24  O         24.2450   24.6860   20.5660 O.2     9  ASN9       -0.2864
     25  CB        23.6480   22.7420   18.0900 C.3     9  ASN9        0.1181
     26  CG        23.1740   21.3590   17.6620 C.2     9  ASN9        0.2629
     27  OD1       22.6580   21.2070   16.5630 O.2     9  ASN9       -0.2716
     28  ND2       23.2930   20.3670   18.5390 N.am    9  ASN9       -0.0877
     29  N         21.6020   27.4420   20.7140 N.3    10  ALA10      -0.1245
     30  CA        20.8640   27.7140   21.9310 C.3    10  ALA10       0.1562
     31  C         21.5030   26.9520   23.0730 C.2    10  ALA10       0.2260
     32  O         21.8360   27.5410   24.0920 O.2    10  ALA10      -0.2867
     33  CB        19.4090   27.3180   21.7590 C.3    10  ALA10       0.0290
     34  N         12.2570   27.7690   25.4840 N.3    28  ALA28      -0.1231
     35  CA        11.1170   27.2750   24.7290 C.3    28  ALA28       0.1694
     36  C         11.5990   26.3940   23.5710 C.2    28  ALA28       0.2592
     37  O         12.4720   26.7770   22.7930 O.2    28  ALA28      -0.2718
     38  CB        10.2730   28.4320   24.2190 C.3    28  ALA28       0.0304
     39  N         11.0220   25.2080   23.4660 N.am   29  ASN29      -0.1960
     40  CA        11.3220   24.2660   22.4100 C.3    29  ASN29       0.1819
     41  C         10.1510   23.2860   22.3150 C.2    29  ASN29       0.2621
     42  O          9.7990   22.6240   23.3080 O.2    29  ASN29      -0.2715
     43  CB        12.6400   23.5510   22.6930 C.3    29  ASN29       0.1195
     44  CG        13.0590   22.6540   21.5570 C.2    29  ASN29       0.2630
     45  OD1       12.6100   21.5440   21.4610 O.2    29  ASN29      -0.2716
     46  ND2       13.9120   23.1320   20.7020 N.am   29  ASN29      -0.0877
     47  N          9.5260   23.2090   21.1370 N.am   30  ARG30      -0.1963
     48  CA         8.2620   22.4760   20.9950 C.3    30  ARG30       0.1729
     49  C          8.4570   20.9770   21.2910 C.2    30  ARG30       0.2616
     50  O          7.7360   20.4130   22.1250 O.2    30  ARG30      -0.2715
     51  CB         7.5820   22.7240   19.6310 C.3    30  ARG30       0.0348
     52  CG         6.0790   23.2060   19.7010 C.3    30  ARG30       0.0492
     53  CD         5.0380   22.0390   19.8650 C.3    30  ARG30       0.2205
     54  NE         5.1450   21.3620   21.1800 N.pl3  30  ARG30      -0.0865
     55  CZ         4.8900   20.0720   21.4340 C.cat  30  ARG30       0.5346
     56  NH1        4.5040   19.2390   20.4700 N.pl3  30  ARG30       0.1354
     57  NH2        5.0480   19.6100   22.6680 N.pl3  30  ARG30       0.1354
     58  N          9.4450   20.3510   20.6520 N.am   31  GLY31      -0.1955
     59  CA         9.7200   18.9310   20.8640 C.3    31  GLY31       0.1869
     60  C         10.1560   18.6230   22.2820 C.2    31  GLY31       0.2309
     61  O         11.0620   19.2700   22.8080 O.2    31  GLY31      -0.2863
     62  N         14.1090   16.9550   23.1160 N.3    34  LYS34      -0.1245
     63  CA        15.2850   17.7720   23.3500 C.3    34  LYS34       0.1561
     64  C         15.1690   18.6930   24.5730 C.2    34  LYS34       0.2260
     65  O         16.1840   19.1020   25.1540 O.2    34  LYS34      -0.2867
     66  CB        15.7300   18.4940   22.0740 C.3    34  LYS34       0.0271
     67  CG        15.4320   19.9720   21.9990 C.3    34  LYS34       0.0035
     68  CD        16.2280   20.6540   20.8530 C.3    34  LYS34       0.0206
     69  CE        15.5500   20.5310   19.4960 C.3    34  LYS34       0.1093
     70  NZ        16.3610   19.7430   18.5250 N.3    34  LYS34      -0.1314
     71  N          7.3930   24.1310   26.3080 N.3    48  ALA48      -0.1231
     72  CA         6.9860   24.0850   24.9040 C.3    48  ALA48       0.1694
     73  C          6.8740   25.5060   24.3270 C.2    48  ALA48       0.2592
     74  O          7.3080   25.7460   23.2130 O.2    48  ALA48      -0.2718
     75  CB         5.6740   23.2650   24.7210 C.3    48  ALA48       0.0304
     76  N          6.3370   26.4340   25.1290 N.am   49  THR49      -0.1953
     77  CA         6.1590   27.8320   24.7490 C.3    49  THR49       0.1897
     78  C          6.9170   28.7940   25.6810 C.2    49  THR49       0.2313
     79  O          7.4460   28.3530   26.7180 O.2    49  THR49      -0.2863
     80  CB         4.6560   28.2030   24.7160 C.3    49  THR49       0.1794
     81  OG1        4.1100   28.1150   26.0380 O.3    49  THR49      -0.2208
     82  CG2        3.8950   27.2570   23.7920 C.3    49  THR49       0.0378
     83  N         16.5830   31.6430   18.1700 N.3    62  ALA62      -0.1231
     84  CA        17.6110   30.6600   17.8530 C.3    62  ALA62       0.1694
     85  C         17.0570   29.5590   17.0110 C.2    62  ALA62       0.2592
     86  O         17.6330   28.4530   16.9840 O.2    62  ALA62      -0.2718
     87  CB        18.2060   30.0870   19.1420 C.3    62  ALA62       0.0304
     88  N         15.9350   29.8320   16.3480 N.am   63  VAL63      -0.1966
     89  CA        15.3690   28.8610   15.4190 C.3    63  VAL63       0.1727
     90  C         15.9430   29.0520   14.0250 C.2    63  VAL63       0.2616
     91  O         16.3970   30.1220   13.6610 O.2    63  VAL63      -0.2715
     92  CB        13.8400   28.8930   15.3750 C.3    63  VAL63       0.0290
     93  CG1       13.2550   28.6430   16.7640 C.3    63  VAL63       0.0023
     94  CG2       13.3680   30.1710   14.8510 C.3    63  VAL63       0.0023
     95  N         15.9530   27.9780   13.2430 N.am   64  LYS64      -0.1964
     96  CA        16.3390   28.0510   11.8280 C.3    64  LYS64       0.1713
     97  C         15.6240   29.2240   11.1290 C.2    64  LYS64       0.2458
     98  O         14.4800   29.5210   11.4620 O.2    64  LYS64      -0.2730
     99  CB        16.1810   26.6690   11.1290 C.3    64  LYS64       0.0311
    100  CG        15.0720   25.7280   11.6860 C.3    64  LYS64       0.0038
    101  CD        14.6680   25.9790   13.1770 C.3    64  LYS64       0.0206
    102  CE        13.7770   24.8800   13.7760 C.3    64  LYS64       0.1093
    103  NZ        12.2830   25.0670   13.5820 N.3    64  LYS64      -0.1314
    104  N         16.3320   29.9280   10.2160 N.am   65  PRO65      -0.2727
    105  CA        15.8390   31.1540    9.5730 C.3    65  PRO65       0.1402
    106  C         14.4730   31.0660    8.9360 C.2    65  PRO65       0.2269
    107  O         13.7090   32.0510    8.9970 O.2    65  PRO65      -0.2865
    108  CB        16.8920   31.4460    8.4860 C.3    65  PRO65       0.0296
    109  CG        18.1600   30.7400    8.9970 C.3    65  PRO65       0.0237
    110  CD        17.7120   29.5780    9.8080 C.3    65  PRO65       0.0939
    111  N         12.0150   28.9970    9.6650 N.3    67  ASP67      -0.1239
    112  CA        10.9420   28.8020   10.6410 C.3    67  ASP67       0.1674
    113  C         10.7170   30.0360   11.5160 C.2    67  ASP67       0.2266
    114  O          9.7810   30.0430   12.3120 O.2    67  ASP67      -0.2867
    115  CB        11.2140   27.5420   11.4770 C.3    67  ASP67       0.1410
    116  CG        11.5100   26.3070   10.6010 C.2    67  ASP67       0.3668
    117  OD1       10.7630   26.0730    9.6200 O.co2  67  ASP67      -0.2456
    118  OD2       12.4970   25.5840   10.8710 O.co2  67  ASP67      -0.2456
    119  N          7.6220   31.2730   13.9880 N.3    70  ALA70      -0.1245
    120  CA         7.9380   31.2370   15.4190 C.3    70  ALA70       0.1562
    121  C          7.6130   32.5580   16.1730 C.2    70  ALA70       0.2260
    122  O          7.1700   32.5490   17.3350 O.2    70  ALA70      -0.2867
    123  CB         9.4110   30.8280   15.6140 C.3    70  ALA70       0.0290
    124  N         20.6110   34.7380   16.7410 N.3    84  VAL84      -0.1231
    125  CA        21.7610   34.0270   16.1770 C.3    84  VAL84       0.1692
    126  C         21.4390   33.4130   14.8070 C.2    84  VAL84       0.2592
    127  O         22.2590   32.7440   14.2070 O.2    84  VAL84      -0.2718
    128  CB        22.3270   32.9330   17.2070 C.3    84  VAL84       0.0266
    129  CG1       22.7880   33.6010   18.5110 C.3    84  VAL84       0.0020
    130  CG2       21.2960   31.8070   17.5610 C.3    84  VAL84       0.0020
    131  N         20.2540   33.6620   14.2710 N.am   85  ALA85      -0.1966
    132  CA        19.9060   33.0840   12.9760 C.3    85  ALA85       0.1728
    133  C         20.6210   33.7980   11.8340 C.2    85  ALA85       0.2616
    134  O         20.7580   35.0480   11.8480 O.2    85  ALA85      -0.2715
    135  CB        18.4130   33.0950   12.7930 C.3    85  ALA85       0.0334
    136  N         21.0900   32.9940   10.8700 N.am   86  ALA86      -0.1977
    137  CA        21.7430   33.4280    9.6140 C.3    86  ALA86       0.1597
    138  C         20.7680   34.0800    8.6790 C.2    86  ALA86       0.2287
    139  O         19.5900   33.7110    8.6620 O.2    86  ALA86      -0.2864
    140  CB        22.3620   32.2110    8.8890 C.3    86  ALA86       0.0319
    141  N         23.6690   38.3090   16.0730 N.3   106  VAL106     -0.1245
    142  CA        24.8560   37.5110   16.4420 C.3   106  VAL106      0.1561
    143  C         25.0910   36.5270   15.2650 C.2   106  VAL106      0.2260
    144  O         24.1660   35.9540   14.7410 O.2   106  VAL106     -0.2867
    145  CB        24.6580   36.7830   17.7950 C.3   106  VAL106      0.0252
    146  CG1       25.9500   36.0310   18.2630 C.3   106  VAL106      0.0019
    147  CG2       24.1750   37.8480   18.9280 C.3   106  VAL106      0.0019
    148  N         27.3140   33.4050   15.5460 N.3   107  PRO107     -0.2102
    149  CA        28.2400   32.5550   16.3010 C.3   107  PRO107      0.1504
    150  C         28.8110   31.3920   15.4050 C.2   107  PRO107      0.2576
    151  O         28.6300   31.4110   14.1870 O.2   107  PRO107     -0.2718
    152  CB        27.3590   32.0190   17.4550 C.3   107  PRO107      0.0282
    153  CG        25.9330   32.0110   16.8950 C.3   107  PRO107      0.0208
    154  CD        25.9010   32.9830   15.7170 C.3   107  PRO107      0.0893
    155  N         29.6120   30.5010   15.9770 N.am  108  ASN108     -0.1961
    156  CA        30.2070   29.4200   15.2080 C.3   108  ASN108      0.1819
    157  C         30.3010   28.2620   16.2080 C.2   108  ASN108      0.2621
    158  O         30.0330   28.4480   17.4040 O.2   108  ASN108     -0.2715
    159  CB        31.5460   29.8130   14.4980 C.3   108  ASN108      0.1195
    160  CG        32.7500   29.9560   15.4690 C.2   108  ASN108      0.2630
    161  OD1       32.5800   29.8860   16.6600 O.2   108  ASN108     -0.2716
    162  ND2       33.9530   30.2120   14.9370 N.am  108  ASN108     -0.0877
    163  N         30.6290   27.0740   15.7470 N.am  109  THR109     -0.1951
    164  CA        30.3630   25.8500   16.5280 C.3   109  THR109      0.1897
    165  C         31.3790   25.5690   17.6370 C.2   109  THR109      0.2313
    166  O         31.0350   24.8990   18.6040 O.2   109  THR109     -0.2863
    167  CB        30.2420   24.6200   15.6050 C.3   109  THR109      0.1794
    168  OG1       31.3580   24.6670   14.7260 O.3   109  THR109     -0.2208
    169  CG2       28.9260   24.6570   14.7270 C.3   109  THR109      0.0378
    170  N         32.3330   31.8860   10.4680 N.3   158  GLY158     -0.1225
    171  CA        31.0750   31.1380   10.5150 C.3   158  GLY158      0.1811
    172  C         31.3110   29.7400    9.9680 C.2   158  GLY158      0.2280
    173  O         31.0640   28.7030   10.6760 O.2   158  GLY158     -0.2866
@<TRIPOS>BOND
     1   108   109    1
     2   108   105    1
     3   139   138    2
     4   138   137    1
     5   140   137    1
     6   106   107    2
     7   106   105    1
     8   109   110    1
     9   105   104    1
    10   137   136    1
    11   117   116   ar
    12   111   112    1
    13   110   104    1
    14   172   171    1
    15   172   173    2
    16   104    97   am
    17   170   171    1
    18   116   118   ar
    19   116   115    1
    20   112   115    1
    21   112   113    1
    22   136   133   am
    23    99   100    1
    24    99    96    1
    25    97    98    2
    26    97    96    1
    27   113   114    2
    28   100   101    1
    29    96    95    1
    30   133   134    2
    31   133   132    1
    32   135   132    1
    33   132   131    1
    34   101   102    1
    35    95    90   am
    36   103   102    1
    37    91    90    2
    38   119   120    1
    39    90    89    1
    40   151   150    2
    41   127   126    2
    42   131   126   am
    43   159   156    1
    44   159   160    1
    45   168   167    1
    46   169   167    1
    47   144   143    2
    48   126   125    1
    49    94    92    1
    50   162   160   am
    51   156   155    1
    52   156   157    1
    53   143   142    1
    54    92    89    1
    55    92    93    1
    56   150   155   am
    57   150   149    1
    58    89    88    1
    59   120   123    1
    60   120   121    1
    61   160   161    2
    62   148   154    1
    63   148   149    1
    64   167   164    1
    65   154   153    1
    66   163   157   am
    67   163   164    1
    68   141   142    1
    69   121   122    2
    70   125   124    1
    71   125   128    1
    72   157   158    2
    73   149   152    1
    74    88    85   am
    75   142   145    1
    76   164   165    1
    77    27    26    2
    78   153   152    1
    79    86    85    2
    80    85    84    1
    81   128   130    1
    82   128   129    1
    83   165   166    2
    84    26    25    1
    85    26    28   am
    86   145   146    1
    87   145   147    1
    88    84    83    1
    89    84    87    1
    90    25    22    1
    91    70    69    1
    92     7     6    1
    93    21    22    1
    94    21    19   am
    95    22    23    1
    96    18    19    1
    97    18    17    1
    98     4     3    2
    99    69    68    1
   100    51    52    1
   101    51    48    1
   102    23    24    2
   103    19    20    2
   104    52    53    1
   105    53    54    1
   106     8     6    1
   107    10     9    1
   108    10    11    1
   109     6     5    1
   110    17    15   am
   111     3     9   am
   112     3     2    1
   113     5     2    1
   114    56    55    1
   115    58    59    1
   116    58    49   am
   117    46    44   am
   118    29    30    1
   119    68    67    1
   120    59    60    1
   121    11    13   am
   122    11    12    2
   123    13    14    1
   124    48    47    1
   125    48    49    1
   126    47    41   am
   127    54    55    2
   128    49    50    2
   129     2     1    1
   130    15    14    1
   131    15    16    2
   132    55    57    1
   133    45    44    2
   134    44    43    1
   135    33    30    1
   136    30    31    1
   137    67    66    1
   138    66    63    1
   139    60    61    2
   140    41    40    1
   141    41    42    2
   142    40    43    1
   143    40    39    1
   144    37    36    2
   145    31    32    2
   146    62    63    1
   147    74    73    2
   148    63    64    1
   149    39    36   am
   150    36    35    1
   151    82    80    1
   152    38    35    1
   153    73    72    1
   154    73    76   am
   155    64    65    2
   156    80    77    1
   157    80    81    1
   158    75    72    1
   159    35    34    1
   160    77    76    1
   161    77    78    1
   162    72    71    1
   163    78    79    2
