@<TRIPOS>MOLECULE
tmp/2agdA00.pdb
 123 122 0 0 0
SMALL
GASTEIGER

@<TRIPOS>ATOM
      1  N         22.5640   47.8570   34.3450 N.3   150  LYS150     -0.1231
      2  CA        23.0670   46.5360   34.6950 C.3   150  LYS150      0.1693
      3  C         22.2170   45.7870   35.7270 C.2   150  LYS150      0.2592
      4  O         22.4110   44.5880   35.9260 O.2   150  LYS150     -0.2718
      5  CB        24.5240   46.6130   35.1610 C.3   150  LYS150      0.0285
      6  CG        24.7520   47.1810   36.5390 C.3   150  LYS150      0.0035
      7  CD        26.2310   46.9850   36.9200 C.3   150  LYS150      0.0206
      8  CE        26.5120   47.3520   38.3580 C.3   150  LYS150      0.1093
      9  NZ        27.9630   47.1930   38.7080 N.3   150  LYS150     -0.1314
     10  N         21.2890   46.4790   36.3900 N.am  151  PHE151     -0.1976
     11  CA        20.3940   45.8200   37.3530 C.3   151  PHE151      0.1639
     12  C         18.9580   45.8290   36.8090 C.2   151  PHE151      0.2290
     13  O         17.9780   45.7340   37.5660 O.2   151  PHE151     -0.2864
     14  CB        20.4410   46.5260   38.7150 C.3   151  PHE151      0.0560
     15  CG        21.7680   46.3830   39.4260 C.ar  151  PHE151     -0.0200
     16  CD1       22.3600   47.4740   40.0530 C.ar  151  PHE151     -0.0042
     17  CD2       22.4210   45.1580   39.4550 C.ar  151  PHE151     -0.0042
     18  CE1       23.5920   47.3490   40.7040 C.ar  151  PHE151     -0.0003
     19  CE2       23.6670   45.0130   40.1050 C.ar  151  PHE151     -0.0003
     20  CZ        24.2450   46.1130   40.7270 C.ar  151  PHE151     -0.0000
     21  N         18.7780   46.5260   42.9140 N.3   156  PRO156     -0.2102
     22  CA        19.0400   45.0850   43.0160 C.3   156  PRO156      0.1504
     23  C         18.3630   44.5150   44.2640 C.2   156  PRO156      0.2575
     24  O         17.9810   43.3500   44.2900 O.2   156  PRO156     -0.2718
     25  CB        20.5670   45.0050   43.0510 C.3   156  PRO156      0.0282
     26  CG        20.9880   46.3380   43.5780 C.3   156  PRO156      0.0208
     27  CD        20.0360   47.2940   42.9130 C.3   156  PRO156      0.0893
     28  N         18.2460   45.3450   45.3000 N.am  157  TYR157     -0.1977
     29  CA        17.5380   45.0080   46.5360 C.3   157  TYR157      0.1639
     30  C         17.1910   46.3570   47.1530 C.2   157  TYR157      0.2290
     31  O         17.8740   47.3460   46.8920 O.2   157  TYR157     -0.2864
     32  CB        18.3550   44.1160   47.4900 C.3   157  TYR157      0.0560
     33  CG        19.7910   44.5250   47.7250 C.ar  157  TYR157     -0.0198
     34  CD1       20.1760   45.1770   48.9030 C.ar  157  TYR157     -0.0009
     35  CD2       20.7770   44.1930   46.8010 C.ar  157  TYR157     -0.0009
     36  CE1       21.5270   45.4730   49.1550 C.ar  157  TYR157      0.0417
     37  CE2       22.1230   44.4850   47.0360 C.ar  157  TYR157      0.0417
     38  CZ        22.4910   45.1170   48.2140 C.ar  157  TYR157      0.1957
     39  OH        23.8340   45.3470   48.4460 O.3   157  TYR157     -0.2866
     40  N         19.9190   48.4930   48.8230 N.3   160  TYR160     -0.1241
     41  CA        21.1270   48.7620   48.0260 C.3   160  TYR160      0.1605
     42  C         21.4470   50.2740   48.0590 C.2   160  TYR160      0.2264
     43  O         20.5820   51.1030   47.7850 O.2   160  TYR160     -0.2867
     44  CB        20.9090   48.3030   46.5850 C.3   160  TYR160      0.0534
     45  CG        22.0510   48.6750   45.6640 C.ar  160  TYR160     -0.0201
     46  CD1       23.3130   48.0900   45.8040 C.ar  160  TYR160     -0.0009
     47  CD2       21.8680   49.6310   44.6550 C.ar  160  TYR160     -0.0009
     48  CE1       24.3730   48.4520   44.9510 C.ar  160  TYR160      0.0417
     49  CE2       22.9200   49.9950   43.8000 C.ar  160  TYR160      0.0417
     50  CZ        24.1600   49.4030   43.9580 C.ar  160  TYR160      0.1957
     51  OH        25.1770   49.7790   43.1120 O.3   160  TYR160     -0.2866
     52  N         24.7440   51.3740   46.8170 N.3   162  GLY162     -0.1225
     53  CA        25.9980   51.5440   46.1050 C.3   162  GLY162      0.1811
     54  C         25.9220   52.3840   44.8490 C.2   162  GLY162      0.2280
     55  O         24.8530   52.8610   44.4570 O.2   162  GLY162     -0.2866
     56  N         36.5950   43.8870   46.7490 N.3   185  TRP185     -0.1227
     57  CA        35.2080   44.1260   46.3820 C.3   185  TRP185      0.1737
     58  C         34.1140   43.6700   47.3310 C.2   185  TRP185      0.2596
     59  O         34.2040   42.6040   47.9540 O.2   185  TRP185     -0.2718
     60  CB        34.9340   43.4830   45.0190 C.3   185  TRP185      0.0564
     61  CG        33.5640   43.7690   44.4320 C.ar  185  TRP185      0.0003
     62  CD1       33.2660   44.7140   43.4990 C.ar  185  TRP185      0.0946
     63  CD2       32.3340   43.0740   44.7060 C.ar  185  TRP185      0.0152
     64  NE1       31.9340   44.6540   43.1650 N.ar  185  TRP185     -0.2442
     65  CE2       31.3350   43.6600   43.8910 C.ar  185  TRP185      0.0810
     66  CE3       31.9790   42.0190   45.5590 C.ar  185  TRP185      0.0012
     67  CZ2       29.9920   43.2230   43.9010 C.ar  185  TRP185      0.0191
     68  CZ3       30.6400   41.5820   45.5700 C.ar  185  TRP185      0.0001
     69  CH2       29.6690   42.1870   44.7450 C.ar  185  TRP185      0.0015
     70  N         33.0770   44.4990   47.4180 N.am  186  GLY186     -0.1942
     71  CA        31.8910   44.1550   48.1820 C.3   186  GLY186      0.2014
     72  C         31.6780   44.5050   49.6350 C.2   186  GLY186      0.2639
     73  O         32.6210   44.5840   50.4320 O.2   186  GLY186     -0.2714
     74  N         30.4030   44.7390   49.9570 N.am  187  GLY187     -0.1954
     75  CA        29.9900   45.0100   51.3210 C.3   187  GLY187      0.1869
     76  C         30.1280   46.3870   51.9320 C.2   187  GLY187      0.2309
     77  O         29.3380   46.7420   52.8150 O.2   187  GLY187     -0.2863
     78  N         29.3590   49.2440   50.8120 N.3   189  ASP189     -0.1225
     79  CA        28.1800   50.0850   50.5930 C.3   189  ASP189      0.1805
     80  C         27.0430   49.6330   51.5140 C.2   189  ASP189      0.2597
     81  O         26.2450   50.4470   51.9630 O.2   189  ASP189     -0.2718
     82  CB        27.7480   50.0660   49.1130 C.3   189  ASP189      0.1424
     83  CG        27.6490   48.6550   48.5260 C.2   189  ASP189      0.3668
     84  OD1       28.4120   47.7570   48.9390 O.co2 189  ASP189     -0.2456
     85  OD2       26.8160   48.4570   47.6160 O.co2 189  ASP189     -0.2456
     86  N         26.9890   48.3370   51.8110 N.am  190  ASP190     -0.1974
     87  CA        25.9660   47.8230   52.7160 C.3   190  ASP190      0.1709
     88  C         26.2970   48.2730   54.1260 C.2   190  ASP190      0.2293
     89  O         25.3970   48.5640   54.9160 O.2   190  ASP190     -0.2864
     90  CB        25.8960   46.2960   52.6690 C.3   190  ASP190      0.1436
     91  CG        25.4140   45.7780   51.3300 C.2   190  ASP190      0.3671
     92  OD1       24.5020   46.3970   50.7380 O.co2 190  ASP190     -0.2456
     93  OD2       25.9360   44.7400   50.8720 O.co2 190  ASP190     -0.2456
     94  N         33.4880   40.1030   53.9790 N.3   230  ARG230     -0.1231
     95  CA        32.4330   41.1140   53.8820 C.3   230  ARG230      0.1694
     96  C         31.1220   40.7900   54.5950 C.2   230  ARG230      0.2592
     97  O         30.5350   41.6620   55.2430 O.2   230  ARG230     -0.2718
     98  CB        32.1620   41.4780   52.4130 C.3   230  ARG230      0.0321
     99  CG        31.6560   40.3630   51.5100 C.3   230  ARG230      0.0489
    100  CD        31.5960   40.8810   50.0820 C.3   230  ARG230      0.2205
    101  NE        30.8760   40.0150   49.1540 N.pl3 230  ARG230     -0.0865
    102  CZ        31.3530   38.8780   48.6530 C.cat 230  ARG230      0.5346
    103  NH1       32.5650   38.4490   48.9910 N.pl3 230  ARG230      0.1354
    104  NH2       30.6220   38.1850   47.7910 N.pl3 230  ARG230      0.1354
    105  N         30.6610   39.5510   54.4990 N.am  231  PHE231     -0.1976
    106  CA        29.4030   39.1990   55.1550 C.3   231  PHE231      0.1639
    107  C         29.4840   39.2840   56.6700 C.2   231  PHE231      0.2290
    108  O         28.5080   39.6530   57.3310 O.2   231  PHE231     -0.2864
    109  CB        28.9440   37.8110   54.7110 C.3   231  PHE231      0.0560
    110  CG        28.6910   37.7250   53.2440 C.ar  231  PHE231     -0.0200
    111  CD1       29.6670   37.2300   52.3840 C.ar  231  PHE231     -0.0042
    112  CD2       27.5050   38.2140   52.7040 C.ar  231  PHE231     -0.0042
    113  CE1       29.4700   37.2260   51.0110 C.ar  231  PHE231     -0.0003
    114  CE2       27.2960   38.2160   51.3310 C.ar  231  PHE231     -0.0003
    115  CZ        28.2800   37.7220   50.4790 C.ar  231  PHE231     -0.0000
    116  N         29.6510   43.2980   57.6490 N.3   234  ILE234     -0.1245
    117  CA        28.4130   44.0800   57.6260 C.3   234  ILE234      0.1561
    118  C         27.4710   43.6790   58.7560 C.2   234  ILE234      0.2260
    119  O         26.5280   44.4010   59.0750 O.2   234  ILE234     -0.2867
    120  CB        27.6690   43.9690   56.2680 C.3   234  ILE234      0.0252
    121  CG1       27.2220   42.5280   56.0170 C.3   234  ILE234      0.0019
    122  CG2       28.5870   44.4640   55.1260 C.3   234  ILE234      0.0019
    123  CD1       26.4680   42.3410   54.6940 C.3   234  ILE234      0.0001
@<TRIPOS>BOND
     1     1     2    1
     2     2     5    1
     3     2     3    1
     4     5     6    1
     5     3     4    2
     6     3    10   am
     7    10    11    1
     8     6     7    1
     9    12    11    1
    10    12    13    2
    11     7     8    1
    12    11    14    1
    13     8     9    1
    14    14    15    1
    15    15    17   ar
    16    15    16   ar
    17    17    19   ar
    18    16    18   ar
    19    19    20   ar
    20    18    20   ar
    21    27    21    1
    22    27    26    1
    23    21    22    1
    24    22    25    1
    25    22    23    1
    26    25    26    1
    27    51    50    1
    28    64    62   ar
    29    64    65   ar
    30    62    61   ar
    31    49    50   ar
    32    49    47   ar
    33    65    67   ar
    34    65    63   ar
    35    67    69   ar
    36    50    48   ar
    37    23    24    2
    38    23    28   am
    39    61    63   ar
    40    61    60    1
    41    55    54    2
    42    47    45   ar
    43    63    66   ar
    44    69    68   ar
    45    54    53    1
    46    48    46   ar
    47    60    57    1
    48    28    29    1
    49    66    68   ar
    50    45    46   ar
    51    45    44    1
    52    53    52    1
    53    57    56    1
    54    57    58    1
    55    29    30    1
    56    29    32    1
    57    44    41    1
    58    35    37   ar
    59    35    33   ar
    60    31    30    2
    61    37    38   ar
    62    58    70   am
    63    58    59    2
    64    70    71    1
    65    32    33    1
    66    85    83   ar
    67    33    34   ar
    68    43    42    2
    69   104   102    1
    70    41    42    1
    71    41    40    1
    72    71    72    1
    73    38    39    1
    74    38    36   ar
    75    83    84   ar
    76    83    82    1
    77   102   103    1
    78   102   101    2
    79    34    36   ar
    80    82    79    1
    81   101   100    1
    82    72    74   am
    83    72    73    2
    84    74    75    1
    85   100    99    1
    86   115   113   ar
    87   115   114   ar
    88    79    78    1
    89    79    80    1
    90    92    91   ar
    91    93    91   ar
    92   113   111   ar
    93    75    76    1
    94    91    90    1
    95   114   112   ar
    96    99    98    1
    97    80    86   am
    98    80    81    2
    99    86    87    1
   100    76    77    2
   101   111   110   ar
   102    98    95    1
   103    90    87    1
   104   112   110   ar
   105    87    88    1
   106   110   109    1
   107    95    94    1
   108    95    96    1
   109    88    89    2
   110   105    96   am
   111   105   106    1
   112    96    97    2
   113   123   121    1
   114   109   106    1
   115   122   120    1
   116   106   107    1
   117   121   120    1
   118   120   117    1
   119   107   108    2
   120   117   116    1
   121   117   118    1
   122   118   119    2
