@<TRIPOS>MOLECULE
tmp/2ageA00.pdb
 167 162 0 0 0
SMALL
GASTEIGER

@<TRIPOS>ATOM
      1  N         19.6200   60.2480   19.2080 N.3    24  PHE24      -0.1241
      2  CA        19.0820   61.5840   19.0470 C.3    24  PHE24       0.1605
      3  C         19.2670   62.2160   17.6900 C.2    24  PHE24       0.2264
      4  O         18.5890   63.1920   17.3680 O.2    24  PHE24      -0.2867
      5  CB        19.5790   62.5600   20.1630 C.3    24  PHE24       0.0534
      6  CG        21.0220   62.9210   20.0900 C.ar   24  PHE24      -0.0203
      7  CD1       21.4330   64.0370   19.3570 C.ar   24  PHE24      -0.0042
      8  CD2       22.0040   62.1790   20.7560 C.ar   24  PHE24      -0.0042
      9  CE1       22.7400   64.3670   19.2980 C.ar   24  PHE24      -0.0003
     10  CE2       23.3390   62.5030   20.6710 C.ar   24  PHE24      -0.0003
     11  CZ        23.7140   63.6030   19.9450 C.ar   24  PHE24      -0.0000
     12  N         22.7750   71.7360   14.6440 N.3    40  HIS40      -0.1241
     13  CA        21.6810   71.7790   15.5880 C.3    40  HIS40       0.1621
     14  C         21.6200   70.5380   16.4810 C.2    40  HIS40       0.2264
     15  O         20.9300   70.5500   17.4810 O.2    40  HIS40      -0.2867
     16  CB        20.3630   72.1250   14.9380 C.3    40  HIS40       0.0745
     17  CG        19.6530   70.9930   14.3170 C.ar   40  HIS40       0.0817
     18  ND1       19.6100   70.7590   12.9510 N.ar   40  HIS40      -0.2268
     19  CD2       18.8580   70.0610   14.8860 C.ar   40  HIS40       0.1154
     20  CE1       18.8140   69.7380   12.7090 C.ar   40  HIS40       0.1986
     21  NE2       18.4050   69.2450   13.9020 N.ar   40  HIS40      -0.2212
     22  N         21.2840   79.5000   14.8120 N.3    78  SER78      -0.1217
     23  CA        20.2600   78.6030   15.3370 C.3    78  SER78       0.1889
     24  C         18.8230   79.0410   15.0470 C.2    78  SER78       0.2288
     25  O         17.8920   78.2810   15.2650 O.2    78  SER78      -0.2866
     26  CB        20.4220   78.4220   16.8400 C.3    78  SER78       0.2089
     27  OG        20.2600   79.6420   17.5090 O.3    78  SER78      -0.2183
     28  N         18.9640   78.3340   10.7920 N.3    81  LEU81      -0.1245
     29  CA        19.6410   77.0660   10.4800 C.3    81  LEU81       0.1561
     30  C         20.6360   77.2000    9.3400 C.2    81  LEU81       0.2260
     31  O         21.1720   76.2040    8.8540 O.2    81  LEU81      -0.2867
     32  CB        18.6610   75.9090   10.2950 C.3    81  LEU81       0.0270
     33  CG        17.8310   75.6330   11.5540 C.3    81  LEU81       0.0019
     34  CD1       16.7890   74.6040   11.2980 C.3    81  LEU81       0.0001
     35  CD2       18.7400   75.1970   12.7150 C.3    81  LEU81       0.0001
     36  N          9.3190   77.5360    0.6410 N.3   152  TYR152     -0.1241
     37  CA         9.8320   78.1530    1.8540 C.3   152  TYR152      0.1605
     38  C         10.3430   79.5750    1.5850 C.2   152  TYR152      0.2264
     39  O         11.5220   79.8750    1.6870 O.2   152  TYR152     -0.2867
     40  CB        10.9480   77.2940    2.4140 C.3   152  TYR152      0.0534
     41  CG        10.5230   75.9070    2.9030 C.ar  152  TYR152     -0.0201
     42  CD1       10.8670   74.7830    2.2010 C.ar  152  TYR152     -0.0009
     43  CD2        9.7710   75.7510    4.0510 C.ar  152  TYR152     -0.0009
     44  CE1       10.5010   73.5330    2.6880 C.ar  152  TYR152      0.0417
     45  CE2        9.4350   74.5110    4.5390 C.ar  152  TYR152      0.0417
     46  CZ         9.7920   73.3920    3.8310 C.ar  152  TYR152      0.1957
     47  OH         9.4070   72.1690    4.3540 O.3   152  TYR152     -0.2866
     48  N         13.3340   81.7120    3.4100 N.3   155  GLN155     -0.1245
     49  CA        13.9800   80.8060    4.3770 C.3   155  GLN155      0.1566
     50  C         15.1140   79.9710    3.8330 C.2   155  GLN155      0.2260
     51  O         15.7890   79.3000    4.6010 O.2   155  GLN155     -0.2867
     52  CB        12.9130   79.9170    5.0210 C.3   155  GLN155      0.0367
     53  CG        11.9220   80.6580    5.8970 C.3   155  GLN155      0.0905
     54  CD        11.0470   79.7080    6.6940 C.2   155  GLN155      0.2608
     55  OE1       10.2750   78.9610    6.1450 O.2   155  GLN155     -0.2717
     56  NE2       11.2190   79.7090    8.0090 N.am  155  GLN155     -0.0878
     57  N          9.3390   61.5740    3.2120 N.3   171  ASP171     -0.1225
     58  CA        10.2100   62.6440    3.7170 C.3   171  ASP171      0.1805
     59  C         11.1180   62.1430    4.8240 C.2   171  ASP171      0.2598
     60  O         10.8790   61.0860    5.3710 O.2   171  ASP171     -0.2718
     61  CB         9.2980   63.7590    4.2430 C.3   171  ASP171      0.1424
     62  CG         9.9100   65.1200    4.2940 C.2   171  ASP171      0.3668
     63  OD1        9.1500   66.0680    4.7280 O.co2 171  ASP171     -0.2456
     64  OD2       11.1050   65.3520    4.0040 O.co2 171  ASP171     -0.2456
     65  N         12.1110   62.9430    5.1790 N.am  172  SER172     -0.1938
     66  CA        12.8060   62.7680    6.4820 C.3   172  SER172      0.2055
     67  C         12.0120   63.4310    7.5870 C.2   172  SER172      0.2643
     68  O         11.0400   64.1310    7.3190 O.2   172  SER172     -0.2714
     69  CB        14.1840   63.3590    6.3540 C.3   172  SER172      0.2130
     70  OG        14.1830   64.7220    6.0390 O.3   172  SER172     -0.2179
     71  N         12.3920   63.2020    8.8400 N.am  173  CYS173     -0.1953
     72  CA        11.6060   63.6710    9.9570 C.3   173  CYS173      0.1843
     73  C         12.4920   63.8380   11.1900 C.2   173  CYS173      0.2625
     74  O         13.6780   63.6240   11.1480 O.2   173  CYS173     -0.2714
     75  CB        10.4460   62.6880   10.2470 C.3   173  CYS173      0.0997
     76  SG         9.0030   63.3900   11.1400 S.3   173  CYS173     -0.0797
     77  N         11.9030   64.2800   12.2940 N.am  174  GLN174     -0.1963
     78  CA        12.6090   64.3550   13.5640 C.3   174  GLN174      0.1733
     79  C         13.2630   63.0190   13.8740 C.2   174  GLN174      0.2616
     80  O         12.6670   61.9570   13.6930 O.2   174  GLN174     -0.2715
     81  CB        11.6480   64.7700   14.6780 C.3   174  GLN174      0.0408
     82  CG        11.3800   66.2740   14.7220 C.3   174  GLN174      0.0908
     83  CD        10.5590   66.8040   13.5530 C.2   174  GLN174      0.2608
     84  OE1        9.5620   66.1740   13.1440 O.2   174  GLN174     -0.2717
     85  NE2       10.9660   67.9460   12.9930 N.am  174  GLN174     -0.0878
     86  N         14.4920   63.0930   14.3540 N.am  175  GLY175     -0.1955
     87  CA        15.3190   61.9240   14.6180 C.3   175  GLY175      0.1869
     88  C         16.2390   61.5500   13.4710 C.2   175  GLY175      0.2309
     89  O         17.1700   60.7850   13.6440 O.2   175  GLY175     -0.2863
     90  N         17.7090   64.0770   11.6680 N.3   177  SER177     -0.1217
     91  CA        18.6110   65.2110   11.5520 C.3   177  SER177      0.1889
     92  C         20.0440   64.8110   11.7100 C.2   177  SER177      0.2288
     93  O         20.4010   63.9700   12.5500 O.2   177  SER177     -0.2866
     94  CB        18.2910   66.2520   12.6310 C.3   177  SER177      0.2089
     95  OG        17.1380   67.0390   12.2460 O.3   177  SER177     -0.2183
     96  N         20.5180   66.0700    6.6970 N.3   191  VAL191     -0.1231
     97  CA        19.1400   66.2970    7.1400 C.3   191  VAL191      0.1692
     98  C         19.1440   67.4780    8.1070 C.2   191  VAL191      0.2593
     99  O         19.7690   67.4280    9.1550 O.2   191  VAL191     -0.2718
    100  CB        18.5460   65.0550    7.7660 C.3   191  VAL191      0.0266
    101  CG1       17.1270   65.3280    8.2150 C.3   191  VAL191      0.0020
    102  CG2       18.6130   63.8170    6.8470 C.3   191  VAL191      0.0020
    103  N         18.3820   68.5270    7.7740 N.am  192  SER192     -0.1938
    104  CA        18.3860   69.7830    8.5350 C.3   192  SER192      0.2055
    105  C         17.0340   70.1810    9.0870 C.2   192  SER192      0.2643
    106  O         16.8790   70.1560   10.3250 O.2   192  SER192     -0.2714
    107  CB        19.0690   70.8750    7.7090 C.3   192  SER192      0.2130
    108  OG        19.1720   72.1020    8.4470 O.3   192  SER192     -0.2179
    109  N         16.0520   70.5080    8.2690 N.am  193  TRP193     -0.1959
    110  CA        14.8020   71.0230    8.7870 C.3   193  TRP193      0.1771
    111  C         13.6820   70.8600    7.7610 C.2   193  TRP193      0.2620
    112  O         13.8820   70.4720    6.6290 O.2   193  TRP193     -0.2715
    113  CB        14.9360   72.4710    9.2530 C.3   193  TRP193      0.0590
    114  CG        15.2410   73.4850    8.1850 C.ar  193  TRP193      0.0006
    115  CD1       16.4560   73.8670    7.7260 C.ar  193  TRP193      0.0946
    116  CD2       14.2860   74.3500    7.5110 C.ar  193  TRP193      0.0152
    117  NE1       16.3390   74.8810    6.7980 N.ar  193  TRP193     -0.2442
    118  CE2       15.0170   75.1970    6.6500 C.ar  193  TRP193      0.0810
    119  CE3       12.9000   74.4760    7.5540 C.ar  193  TRP193      0.0012
    120  CZ2       14.3970   76.1610    5.8300 C.ar  193  TRP193      0.0191
    121  CZ3       12.2900   75.4130    6.7430 C.ar  193  TRP193      0.0001
    122  CH2       13.0360   76.2300    5.9130 C.ar  193  TRP193      0.0015
    123  N         12.4710   71.2030    8.1900 N.am  194  GLY194     -0.1940
    124  CA        11.3230   71.2440    7.2970 C.3   194  GLY194      0.2014
    125  C         10.1080   71.7120    8.0800 C.2   194  GLY194      0.2640
    126  O         10.1350   71.8100    9.2900 O.2   194  GLY194     -0.2714
    127  N          9.0100   71.9820    7.3840 N.am  195  SER195     -0.1935
    128  CA         7.7600   72.3150    8.0640 C.3   195  SER195      0.2055
    129  C          6.9210   71.0670    8.1560 C.2   195  SER195      0.2644
    130  O          6.4550   70.4840    7.1740 O.2   195  SER195     -0.2714
    131  CB         6.9790   73.3780    7.2820 C.3   195  SER195      0.2130
    132  OG         5.7170   73.6100    7.8870 O.3   195  SER195     -0.2179
    133  N          6.6600   70.5090    9.4200 N.am  196  GLY196     -0.1939
    134  CA         6.0650   69.1880    9.5730 C.3   196  GLY196      0.2014
    135  C          6.9410   68.1190    8.9550 C.2   196  GLY196      0.2639
    136  O          8.1250   68.3500    8.7200 O.2   196  GLY196     -0.2714
    137  N          6.3580   66.9760    8.6650 N.am  197  CYS197     -0.1967
    138  CA         7.0920   65.9850    7.8610 C.3   197  CYS197      0.1712
    139  C          6.0910   65.3280    6.9230 C.2   197  CYS197      0.2296
    140  O          4.9600   64.9500    7.2980 O.2   197  CYS197     -0.2864
    141  CB         7.9800   64.9580    8.5770 C.3   197  CYS197      0.0983
    142  SG         7.4350   63.8720    9.8430 S.3   197  CYS197     -0.0798
    143  N          5.6990   70.8000    1.2820 N.3   202  LYS202     -0.1245
    144  CA         6.6610   71.1650    2.3380 C.3   202  LYS202      0.1561
    145  C          7.7350   70.0610    2.3280 C.2   202  LYS202      0.2260
    146  O          7.7460   69.1610    3.1980 O.2   202  LYS202     -0.2867
    147  CB         5.9550   71.2620    3.6850 C.3   202  LYS202      0.0271
    148  CG         4.9640   72.4520    3.8030 C.3   202  LYS202      0.0035
    149  CD         5.6560   73.8120    3.6370 C.3   202  LYS202      0.0206
    150  CE         4.7770   75.0220    3.9860 C.3   202  LYS202      0.1093
    151  NZ         5.6200   76.2750    3.9110 N.3   202  LYS202     -0.1314
    152  N         11.6360   68.3360    2.4410 N.3   204  GLY204     -0.1225
    153  CA        12.7620   68.5080    3.3380 C.3   204  GLY204      0.1811
    154  C         13.7660   69.5050    2.8780 C.2   204  GLY204      0.2280
    155  O         13.9700   69.6870    1.6860 O.2   204  GLY204     -0.2866
    156  N         17.8620   70.5610    3.4410 N.3   206  TYR206     -0.1241
    157  CA        19.1270   69.8930    3.6570 C.3   206  TYR206      0.1605
    158  C         20.3010   70.8480    3.5420 C.2   206  TYR206      0.2264
    159  O         20.3290   71.7240    2.6820 O.2   206  TYR206     -0.2867
    160  CB        19.2550   68.7260    2.6300 C.3   206  TYR206      0.0534
    161  CG        18.1220   67.7440    2.7530 C.ar  206  TYR206     -0.0201
    162  CD1       18.1690   66.7310    3.7260 C.ar  206  TYR206     -0.0009
    163  CD2       16.9510   67.8440    2.0180 C.ar  206  TYR206     -0.0009
    164  CE1       17.1220   65.8810    3.9400 C.ar  206  TYR206      0.0417
    165  CE2       15.8970   66.9770    2.2070 C.ar  206  TYR206      0.0417
    166  CZ        15.9830   65.9970    3.1900 C.ar  206  TYR206      0.1957
    167  OH        14.9240   65.1290    3.4350 O.3   206  TYR206     -0.2866
@<TRIPOS>BOND
     1    36    37    1
     2   143   144    1
     3    38    39    2
     4    38    37    1
     5   155   154    2
     6    37    40    1
     7   163   165   ar
     8   163   161   ar
     9    42    44   ar
    10    42    41   ar
    11   165   166   ar
    12   145   144    1
    13   145   146    2
    14   144   147    1
    15    40    41    1
    16   152   153    1
    17   160   161    1
    18   160   157    1
    19   159   158    2
    20    44    46   ar
    21   161   162   ar
    22   154   153    1
    23    41    43   ar
    24   166   167    1
    25   166   164   ar
    26    57    58    1
    27    48    49    1
    28   156   157    1
    29   158   157    1
    30   149   148    1
    31   149   150    1
    32   147   148    1
    33    58    61    1
    34    58    59    1
    35   162   164   ar
    36    46    47    1
    37    46    45   ar
    38    50    49    1
    39    50    51    2
    40   151   150    1
    41    64    62   ar
    42    43    45   ar
    43    61    62    1
    44    62    63   ar
    45    49    52    1
    46    59    65   am
    47    59    60    2
    48    52    53    1
    49    65    66    1
    50   120   122   ar
    51   120   118   ar
    52    53    54    1
    53   122   121   ar
    54    70    69    1
    55    55    54    2
    56    69    66    1
    57    66    67    1
    58   112   111    2
    59   118   117   ar
    60   118   116   ar
    61    54    56   am
    62    96    97    1
    63   121   119   ar
    64   117   115   ar
    65   102   100    1
    66   139   140    2
    67   139   138    1
    68    97   100    1
    69    97    98    1
    70   130   129    2
    71   131   132    1
    72   131   128    1
    73   124   125    1
    74   124   123    1
    75    68    67    2
    76   127   128    1
    77   127   125   am
    78   116   119   ar
    79   116   114   ar
    80    67    71   am
    81   107   108    1
    82   107   104    1
    83   115   114   ar
    84   111   123   am
    85   111   110    1
    86   100   101    1
    87   103    98   am
    88   103   104    1
    89   138   141    1
    90   138   137    1
    91   128   129    1
    92   125   126    2
    93    98    99    2
    94   129   133   am
    95   114   113    1
    96   109   110    1
    97   109   105   am
    98   104   105    1
    99   141   142    1
   100   137   135   am
   101   136   135    2
   102   110   113    1
   103    71    72    1
   104    31    30    2
   105   135   134    1
   106   105   106    2
   107    30    29    1
   108   133   134    1
   109   142    76    1
   110    72    75    1
   111    72    73    1
   112    75    76    1
   113    32    29    1
   114    32    33    1
   115    29    28    1
   116    74    73    2
   117    73    77   am
   118    34    33    1
   119    91    90    1
   120    91    92    1
   121    91    94    1
   122    33    35    1
   123    92    93    2
   124    95    94    1
   125    77    78    1
   126    20    18   ar
   127    20    21   ar
   128    18    17   ar
   129    85    83   am
   130    84    83    2
   131    88    89    2
   132    88    87    1
   133    83    82    1
   134    78    79    1
   135    78    81    1
   136    80    79    2
   137    79    86   am
   138    21    19   ar
   139    17    19   ar
   140    17    16    1
   141    86    87    1
   142    12    13    1
   143    81    82    1
   144    22    23    1
   145    16    13    1
   146    24    25    2
   147    24    23    1
   148    23    26    1
   149    13    14    1
   150    14    15    2
   151    26    27    1
   152     4     3    2
   153     3     2    1
   154     2     1    1
   155     2     5    1
   156     9     7   ar
   157     9    11   ar
   158     7     6   ar
   159    11    10   ar
   160     6     5    1
   161     6     8   ar
   162    10     8   ar
