@<TRIPOS>MOLECULE
tmp/2aggA00.pdb
 154 149 0 0 0
SMALL
GASTEIGER

@<TRIPOS>ATOM
      1  N         19.9700   61.4420   16.7160 N.3    25  CYS25      -0.1235
      2  CA        20.3120   62.0770   15.4390 C.3    25  CYS25       0.1677
      3  C         21.0760   61.0460   14.6530 C.2    25  CYS25       0.2270
      4  O         21.6080   60.0950   15.1920 O.2    25  CYS25      -0.2867
      5  CB        21.2420   63.3150   15.6130 C.3    25  CYS25       0.0956
      6  SG        20.3200   64.9030   15.8140 S.3    25  CYS25      -0.0801
      7  N         22.6260   71.3340   14.6210 N.3    40  HIS40      -0.1241
      8  CA        21.4890   71.3510   15.5620 C.3    40  HIS40       0.1621
      9  C         21.4700   70.0890   16.4350 C.2    40  HIS40       0.2264
     10  O         20.8030   70.0340   17.4520 O.2    40  HIS40      -0.2867
     11  CB        20.1880   71.7550   14.8610 C.3    40  HIS40       0.0745
     12  CG        19.4330   70.6190   14.2920 C.ar   40  HIS40       0.0817
     13  ND1       19.3690   70.3580   12.9350 N.ar   40  HIS40      -0.2268
     14  CD2       18.6340   69.7160   14.8940 C.ar   40  HIS40       0.1154
     15  CE1       18.5510   69.3310   12.7410 C.ar   40  HIS40       0.1986
     16  NE2       18.1170   68.9080   13.9110 N.ar   40  HIS40      -0.2212
     17  N         21.1300   79.1270   14.9100 N.3    78  SER78      -0.1217
     18  CA        20.1310   78.2320   15.4360 C.3    78  SER78       0.1889
     19  C         18.6860   78.6140   15.1490 C.2    78  SER78       0.2288
     20  O         17.7890   77.8070   15.3310 O.2    78  SER78      -0.2866
     21  CB        20.2870   78.0680   16.9230 C.3    78  SER78       0.2089
     22  OG        20.1130   79.3120   17.5710 O.3    78  SER78      -0.2183
     23  N         18.8420   77.9830   10.8320 N.3    81  LEU81      -0.1245
     24  CA        19.5170   76.7400   10.4800 C.3    81  LEU81       0.1561
     25  C         20.5200   76.8840    9.3460 C.2    81  LEU81       0.2260
     26  O         21.0290   75.9000    8.8300 O.2    81  LEU81      -0.2867
     27  CB        18.5080   75.6030   10.2270 C.3    81  LEU81       0.0270
     28  CG        17.7990   75.1110   11.4940 C.3    81  LEU81       0.0019
     29  CD1       16.6250   74.2490   11.2390 C.3    81  LEU81       0.0001
     30  CD2       18.8040   74.3470   12.3480 C.3    81  LEU81       0.0001
     31  N          9.3820   77.4910    0.5520 N.3   152  TYR152     -0.1241
     32  CA         9.9400   78.0920    1.7640 C.3   152  TYR152      0.1605
     33  C         10.4320   79.5110    1.5270 C.2   152  TYR152      0.2264
     34  O         11.5830   79.8110    1.6310 O.2   152  TYR152     -0.2867
     35  CB        11.0900   77.1950    2.2730 C.3   152  TYR152      0.0534
     36  CG        10.6320   75.8190    2.7630 C.ar  152  TYR152     -0.0201
     37  CD1       10.9070   74.6570    2.0410 C.ar  152  TYR152     -0.0009
     38  CD2        9.9500   75.6790    3.9450 C.ar  152  TYR152     -0.0009
     39  CE1       10.5080   73.3970    2.5100 C.ar  152  TYR152      0.0417
     40  CE2        9.5690   74.4540    4.4330 C.ar  152  TYR152      0.0417
     41  CZ         9.8350   73.2980    3.6990 C.ar  152  TYR152      0.1957
     42  OH         9.4210   72.0710    4.1880 O.3   152  TYR152     -0.2866
     43  N         13.3810   81.6050    3.4360 N.3   155  GLN155     -0.1245
     44  CA        14.0130   80.7040    4.4070 C.3   155  GLN155      0.1566
     45  C         15.1200   79.8360    3.8300 C.2   155  GLN155      0.2260
     46  O         15.7600   79.1320    4.5880 O.2   155  GLN155     -0.2867
     47  CB        12.9210   79.8250    5.0470 C.3   155  GLN155      0.0367
     48  CG        11.8480   80.5520    5.8140 C.3   155  GLN155      0.0905
     49  CD        10.9260   79.6250    6.6240 C.2   155  GLN155      0.2608
     50  OE1       10.3210   78.7060    6.0900 O.2   155  GLN155     -0.2717
     51  NE2       10.8510   79.8600    7.9350 N.am  155  GLN155     -0.0878
     52  N          9.3270   61.5260    3.1400 N.3   171  ASP171     -0.1225
     53  CA        10.2100   62.5730    3.6420 C.3   171  ASP171      0.1805
     54  C         11.0840   62.0240    4.7620 C.2   171  ASP171      0.2598
     55  O         10.8090   60.9550    5.2870 O.2   171  ASP171     -0.2718
     56  CB         9.3510   63.7210    4.2170 C.3   171  ASP171      0.1424
     57  CG        10.0350   65.0310    4.3090 C.2   171  ASP171      0.3668
     58  OD1        9.2920   65.9980    4.7010 O.co2 171  ASP171     -0.2456
     59  OD2       11.2630   65.2240    4.0670 O.co2 171  ASP171     -0.2456
     60  N         12.1330   62.7780    5.1090 N.am  172  SER172     -0.1938
     61  CA        12.8020   62.6080    6.3970 C.3   172  SER172      0.2055
     62  C         11.9930   63.2570    7.4820 C.2   172  SER172      0.2643
     63  O         11.1020   64.0810    7.2330 O.2   172  SER172     -0.2714
     64  CB        14.1910   63.1710    6.3230 C.3   172  SER172      0.2130
     65  OG        14.1510   64.5160    5.9530 O.3   172  SER172     -0.2179
     66  N         12.2920   62.9010    8.7390 N.am  173  CYS173     -0.1953
     67  CA        11.4870   63.4100    9.8450 C.3   173  CYS173      0.1843
     68  C         12.3320   63.5390   11.1210 C.2   173  CYS173      0.2625
     69  O         13.5110   63.2610   11.1110 O.2   173  CYS173     -0.2714
     70  CB        10.2620   62.5050   10.0600 C.3   173  CYS173      0.0997
     71  SG         8.8490   63.2750   10.9410 S.3   173  CYS173     -0.0797
     72  N         11.7210   63.9430   12.2150 N.am  174  GLN174     -0.1963
     73  CA        12.4220   64.1100   13.4640 C.3   174  GLN174      0.1733
     74  C         13.1100   62.7850   13.7960 C.2   174  GLN174      0.2616
     75  O         12.5280   61.6940   13.6830 O.2   174  GLN174     -0.2715
     76  CB        11.4280   64.5160   14.5710 C.3   174  GLN174      0.0408
     77  CG        11.2160   66.0300   14.6010 C.3   174  GLN174      0.0908
     78  CD        10.4110   66.5420   13.4020 C.2   174  GLN174      0.2608
     79  OE1        9.4330   65.9200   12.9720 O.2   174  GLN174     -0.2717
     80  NE2       10.8260   67.7030   12.8550 N.am  174  GLN174     -0.0878
     81  N         14.3410   62.8820   14.2520 N.am  175  GLY175     -0.1955
     82  CA        15.1850   61.7140   14.4990 C.3   175  GLY175      0.1869
     83  C         16.0920   61.3260   13.3540 C.2   175  GLY175      0.2309
     84  O         17.0580   60.5990   13.5560 O.2   175  GLY175     -0.2863
     85  N         17.5640   63.8760   11.6050 N.3   177  SER177     -0.1217
     86  CA        18.4340   65.0130   11.5130 C.3   177  SER177      0.1889
     87  C         19.8900   64.6120   11.6740 C.2   177  SER177      0.2288
     88  O         20.1970   63.7570   12.4970 O.2   177  SER177     -0.2866
     89  CB        18.1220   66.0600   12.5620 C.3   177  SER177      0.2089
     90  OG        16.9540   66.8190   12.1670 O.3   177  SER177     -0.2183
     91  N         20.3910   65.8130    6.6400 N.3   191  VAL191     -0.1231
     92  CA        19.0140   66.0740    7.1150 C.3   191  VAL191      0.1692
     93  C         18.9780   67.2460    8.0580 C.2   191  VAL191      0.2593
     94  O         19.6470   67.2150    9.0960 O.2   191  VAL191     -0.2718
     95  CB        18.4170   64.8300    7.7220 C.3   191  VAL191      0.0266
     96  CG1       17.0100   65.1140    8.1710 C.3   191  VAL191      0.0020
     97  CG2       18.4740   63.6350    6.7750 C.3   191  VAL191      0.0020
     98  N         18.2100   68.2760    7.7350 N.am  192  SER192     -0.1938
     99  CA        18.2600   69.5190    8.4870 C.3   192  SER192      0.2055
    100  C         16.9170   69.9380    9.0790 C.2   192  SER192      0.2643
    101  O         16.7290   69.8950   10.2800 O.2   192  SER192     -0.2714
    102  CB        18.9480   70.6330    7.6610 C.3   192  SER192      0.2130
    103  OG        19.0920   71.8360    8.4320 O.3   192  SER192     -0.2179
    104  N         15.9580   70.3200    8.2230 N.am  193  TRP193     -0.1959
    105  CA        14.6860   70.8390    8.7400 C.3   193  TRP193      0.1771
    106  C         13.5930   70.7580    7.6880 C.2   193  TRP193      0.2620
    107  O         13.8430   70.3630    6.5630 O.2   193  TRP193     -0.2715
    108  CB        14.8500   72.2840    9.2340 C.3   193  TRP193      0.0590
    109  CG        15.1800   73.3000    8.1640 C.ar  193  TRP193      0.0006
    110  CD1       16.4220   73.6490    7.7010 C.ar  193  TRP193      0.0946
    111  CD2       14.2550   74.1640    7.5000 C.ar  193  TRP193      0.0152
    112  NE1       16.3320   74.6800    6.7910 N.ar  193  TRP193     -0.2442
    113  CE2       15.0050   75.0210    6.6640 C.ar  193  TRP193      0.0810
    114  CE3       12.8660   74.3480    7.5980 C.ar  193  TRP193      0.0012
    115  CZ2       14.4000   75.9810    5.8290 C.ar  193  TRP193      0.0191
    116  CZ3       12.2580   75.3080    6.7690 C.ar  193  TRP193      0.0001
    117  CH2       13.0300   76.0950    5.9030 C.ar  193  TRP193      0.0015
    118  N         12.3820   71.0970    8.0860 N.am  194  GLY194     -0.1940
    119  CA        11.2830   71.2590    7.1220 C.3   194  GLY194      0.2014
    120  C         10.0540   71.6760    7.8800 C.2   194  GLY194      0.2640
    121  O         10.0620   71.7200    9.1210 O.2   194  GLY194     -0.2714
    122  N          8.9790   71.9420    7.1160 N.am  195  SER195     -0.1935
    123  CA         7.7410   72.2860    7.7680 C.3   195  SER195      0.2055
    124  C          6.9400   71.0520    7.9930 C.2   195  SER195      0.2643
    125  O          6.4130   70.3790    7.0520 O.2   195  SER195     -0.2714
    126  CB         6.9140   73.2620    6.9470 C.3   195  SER195      0.2130
    127  OG         5.6350   73.4460    7.5530 O.3   195  SER195     -0.2179
    128  N          6.8970   70.4570    9.2870 N.am  196  GLY196     -0.1954
    129  CA         6.4000   69.1080    9.5100 C.3   196  GLY196      0.1869
    130  C          7.2020   68.0740    8.7420 C.2   196  GLY196      0.2309
    131  O          8.3680   68.3060    8.4140 O.2   196  GLY196     -0.2863
    132  N         11.4970   68.2250    2.2860 N.3   204  GLY204     -0.1210
    133  CA        12.5860   68.3530    3.2560 C.3   204  GLY204      0.1956
    134  C         13.6170   69.3450    2.8160 C.2   204  GLY204      0.2612
    135  O         13.9110   69.4590    1.6210 O.2   204  GLY204     -0.2717
    136  N         14.2960   69.9810    3.7900 N.am  205  VAL205     -0.1965
    137  CA        15.3890   70.8660    3.5530 C.3   205  VAL205      0.1727
    138  C         16.6490   70.2590    4.1740 C.2   205  VAL205      0.2616
    139  O         16.6410   69.6660    5.2720 O.2   205  VAL205     -0.2715
    140  CB        15.1240   72.2800    4.1150 C.3   205  VAL205      0.0290
    141  CG1       16.1990   73.2410    3.6690 C.3   205  VAL205      0.0023
    142  CG2       13.7610   72.7660    3.6600 C.3   205  VAL205      0.0023
    143  N         17.7460   70.3830    3.4170 N.am  206  TYR206     -0.1974
    144  CA        19.0180   69.6850    3.6690 C.3   206  TYR206      0.1639
    145  C         20.1950   70.6360    3.5610 C.2   206  TYR206      0.2290
    146  O         20.2280   71.5460    2.7290 O.2   206  TYR206     -0.2864
    147  CB        19.1310   68.5450    2.6210 C.3   206  TYR206      0.0560
    148  CG        18.0330   67.5540    2.7510 C.ar  206  TYR206     -0.0198
    149  CD1       18.0900   66.5600    3.6580 C.ar  206  TYR206     -0.0009
    150  CD2       16.8790   67.6680    2.0010 C.ar  206  TYR206     -0.0009
    151  CE1       17.0400   65.6970    3.8460 C.ar  206  TYR206      0.0417
    152  CE2       15.8010   66.7960    2.1930 C.ar  206  TYR206      0.0417
    153  CZ        15.9010   65.7770    3.0980 C.ar  206  TYR206      0.1957
    154  OH        14.8870   64.9070    3.3650 O.3   206  TYR206     -0.2866
@<TRIPOS>BOND
     1    31    32    1
     2    33    34    2
     3    33    32    1
     4   135   134    2
     5    32    35    1
     6   150   152   ar
     7   150   148   ar
     8    37    39   ar
     9    37    36   ar
    10   152   153   ar
    11    35    36    1
    12   132   133    1
    13    39    41   ar
    14   147   148    1
    15   147   144    1
    16   146   145    2
    17   148   149   ar
    18    36    38   ar
    19   134   133    1
    20   134   136   am
    21   153   154    1
    22   153   151   ar
    23    52    53    1
    24   143   144    1
    25   143   138   am
    26    43    44    1
    27   137   136    1
    28   137   140    1
    29   137   138    1
    30   145   144    1
    31    53    56    1
    32    53    54    1
    33   149   151   ar
    34   142   140    1
    35   141   140    1
    36    41    42    1
    37    41    40   ar
    38    45    44    1
    39    45    46    2
    40    38    40   ar
    41    59    57   ar
    42   138   139    2
    43    56    57    1
    44    57    58   ar
    45    44    47    1
    46    54    60   am
    47    54    55    2
    48    47    48    1
    49    60    61    1
    50    48    49    1
    51   115   117   ar
    52   115   113   ar
    53   117   116   ar
    54    65    64    1
    55    50    49    2
    56    64    61    1
    57    61    62    1
    58   107   106    2
    59    49    51   am
    60    91    92    1
    61   113   112   ar
    62   113   111   ar
    63   116   114   ar
    64    97    95    1
    65   112   110   ar
    66   126   127    1
    67   126   123    1
    68   125   124    2
    69    92    95    1
    70    92    93    1
    71   122   123    1
    72   122   120   am
    73   119   120    1
    74   119   118    1
    75    63    62    2
    76    62    66   am
    77   111   114   ar
    78   111   109   ar
    79   102   103    1
    80   102    99    1
    81   106   118   am
    82   106   105    1
    83   110   109   ar
    84    95    96    1
    85    98    93   am
    86    98    99    1
    87   123   124    1
    88   120   121    2
    89   124   128   am
    90    93    94    2
    91   109   108    1
    92   104   105    1
    93   104   100   am
    94   131   130    2
    95    99   100    1
    96    66    67    1
    97   105   108    1
    98   130   129    1
    99    26    25    2
   100   100   101    2
   101   128   129    1
   102    25    24    1
   103    67    70    1
   104    67    68    1
   105    70    71    1
   106    27    24    1
   107    27    28    1
   108    24    23    1
   109    69    68    2
   110    68    72   am
   111    29    28    1
   112    28    30    1
   113    86    85    1
   114    86    87    1
   115    86    89    1
   116    87    88    2
   117    90    89    1
   118    72    73    1
   119    15    13   ar
   120    15    16   ar
   121    80    78   am
   122    13    12   ar
   123    79    78    2
   124    83    84    2
   125    83    82    1
   126    78    77    1
   127    73    74    1
   128    73    76    1
   129    75    74    2
   130    74    81   am
   131    16    14   ar
   132    81    82    1
   133    12    11    1
   134    12    14   ar
   135    76    77    1
   136     7     8    1
   137     3     4    2
   138     3     2    1
   139    11     8    1
   140    17    18    1
   141    19    20    2
   142    19    18    1
   143    18    21    1
   144     2     5    1
   145     2     1    1
   146     8     9    1
   147     5     6    1
   148     9    10    2
   149    21    22    1
