@<TRIPOS>MOLECULE
tmp/2agiA00.pdb
 190 187 0 0 0
SMALL
GASTEIGER

@<TRIPOS>ATOM
      1  N         22.7710   71.5500   14.6450 N.3    40  HIS40      -0.1241
      2  CA        21.7160   71.6030   15.6250 C.3    40  HIS40       0.1621
      3  C         21.6680   70.3380   16.4870 C.2    40  HIS40       0.2264
      4  O         20.9130   70.3240   17.4650 O.2    40  HIS40      -0.2867
      5  CB        20.3940   71.9850   14.9780 C.3    40  HIS40       0.0745
      6  CG        19.6480   70.8580   14.3770 C.ar   40  HIS40       0.0817
      7  ND1       19.5690   70.6340   13.0070 N.ar   40  HIS40      -0.2268
      8  CD2       18.8190   69.9670   14.9600 C.ar   40  HIS40       0.1154
      9  CE1       18.7390   69.6250   12.8060 C.ar   40  HIS40       0.1986
     10  NE2       18.2860   69.1840   13.9760 N.ar   40  HIS40      -0.2212
     11  N         27.0290   78.8780   12.1770 N.3    76  TYR76      -0.1241
     12  CA        25.7000   78.2890   12.3770 C.3    76  TYR76       0.1605
     13  C         24.7690   79.2810   13.0460 C.2    76  TYR76       0.2264
     14  O         25.1040   79.8660   14.0790 O.2    76  TYR76      -0.2867
     15  CB        25.7810   77.0080   13.2200 C.3    76  TYR76       0.0534
     16  CG        24.4310   76.4930   13.6130 C.ar   76  TYR76      -0.0201
     17  CD1       24.0750   76.3760   14.9300 C.ar   76  TYR76      -0.0009
     18  CD2       23.4890   76.1270   12.6510 C.ar   76  TYR76      -0.0009
     19  CE1       22.8180   75.9220   15.2870 C.ar   76  TYR76       0.0417
     20  CE2       22.2530   75.6760   13.0010 C.ar   76  TYR76       0.0417
     21  CZ        21.8940   75.5720   14.3130 C.ar   76  TYR76       0.1957
     22  OH        20.6430   75.1360   14.6720 O.3    76  TYR76      -0.2866
     23  N         21.0890   79.5790   14.6540 N.3    78  SER78      -0.1217
     24  CA        20.0380   78.7260   15.1980 C.3    78  SER78       0.1889
     25  C         18.6180   79.2280   14.9060 C.2    78  SER78       0.2288
     26  O         17.6320   78.5450   15.2100 O.2    78  SER78      -0.2866
     27  CB        20.2370   78.5060   16.6990 C.3    78  SER78       0.2089
     28  OG        20.1740   79.7460   17.3720 O.3    78  SER78      -0.2183
     29  N         18.8720   78.6450   10.5770 N.3    81  LEU81      -0.1245
     30  CA        19.3860   77.3080   10.3470 C.3    81  LEU81       0.1561
     31  C         20.4430   77.2660    9.2580 C.2    81  LEU81       0.2260
     32  O         20.8800   76.1940    8.8030 O.2    81  LEU81      -0.2867
     33  CB        18.2410   76.3090   10.1210 C.3    81  LEU81       0.0270
     34  CG        17.0170   76.5170   11.0790 C.3    81  LEU81       0.0019
     35  CD1       16.0200   75.4240   10.8190 C.3    81  LEU81       0.0001
     36  CD2       17.4330   76.5820   12.5490 C.3    81  LEU81       0.0001
     37  N         24.0770   74.6130    8.8720 N.3    84  ASP84      -0.1239
     38  CA        23.7240   73.5170    9.8030 C.3    84  ASP84       0.1674
     39  C         24.5900   72.2950    9.5360 C.2    84  ASP84       0.2266
     40  O         24.1520   71.2770    8.9950 O.2    84  ASP84      -0.2867
     41  CB        22.2500   73.1950    9.7150 C.3    84  ASP84       0.1410
     42  CG        21.7360   72.3350   10.8630 C.2    84  ASP84       0.3668
     43  OD1       22.4960   72.1360   11.8310 O.co2  84  ASP84      -0.2456
     44  OD2       20.5860   71.8330   10.7450 O.co2  84  ASP84      -0.2456
     45  N          9.2270   77.3610    0.5690 N.3   152  TYR152     -0.1241
     46  CA         9.7350   77.9790    1.7970 C.3   152  TYR152      0.1605
     47  C         10.2630   79.4050    1.5280 C.2   152  TYR152      0.2264
     48  O         11.4530   79.6890    1.6120 O.2   152  TYR152     -0.2867
     49  CB        10.8150   77.1170    2.4010 C.3   152  TYR152      0.0534
     50  CG        10.3750   75.7350    2.8570 C.ar  152  TYR152     -0.0201
     51  CD1       10.8060   74.6040    2.2130 C.ar  152  TYR152     -0.0009
     52  CD2        9.5740   75.5800    3.9650 C.ar  152  TYR152     -0.0009
     53  CE1       10.4340   73.3600    2.6950 C.ar  152  TYR152      0.0417
     54  CE2        9.2150   74.3570    4.4390 C.ar  152  TYR152      0.0417
     55  CZ         9.6390   73.2280    3.7840 C.ar  152  TYR152      0.1957
     56  OH         9.2730   71.9860    4.3170 O.3   152  TYR152     -0.2866
     57  N         13.2750   81.5950    3.2880 N.3   155  GLN155     -0.1245
     58  CA        13.9130   80.6880    4.2510 C.3   155  GLN155      0.1566
     59  C         14.9760   79.8040    3.7020 C.2   155  GLN155      0.2260
     60  O         15.5600   79.0870    4.4920 O.2   155  GLN155     -0.2867
     61  CB        12.8320   79.7950    4.8870 C.3   155  GLN155      0.0367
     62  CG        11.6150   80.5250    5.4350 C.3   155  GLN155      0.0905
     63  CD        10.3660   79.6480    5.5340 C.2   155  GLN155      0.2608
     64  OE1       10.3010   78.7680    6.3920 O.2   155  GLN155     -0.2717
     65  NE2        9.3650   79.8960    4.6660 N.am  155  GLN155     -0.0878
     66  N          9.3440   61.3690    3.2530 N.3   171  ASP171     -0.1225
     67  CA        10.2030   62.4500    3.7530 C.3   171  ASP171      0.1805
     68  C         11.1000   61.9340    4.8710 C.2   171  ASP171      0.2598
     69  O         10.8670   60.8480    5.4060 O.2   171  ASP171     -0.2718
     70  CB         9.3080   63.5740    4.2880 C.3   171  ASP171      0.1424
     71  CG         9.9450   64.9150    4.3820 C.2   171  ASP171      0.3668
     72  OD1        9.1720   65.8650    4.8130 O.co2 171  ASP171     -0.2456
     73  OD2       11.1360   65.1260    4.0890 O.co2 171  ASP171     -0.2456
     74  N         12.1100   62.7030    5.2350 N.am  172  SER172     -0.1938
     75  CA        12.7820   62.5350    6.5400 C.3   172  SER172      0.2055
     76  C         11.9650   63.2470    7.6240 C.2   172  SER172      0.2643
     77  O         11.0020   63.9260    7.3300 O.2   172  SER172     -0.2714
     78  CB        14.1940   63.0660    6.4520 C.3   172  SER172      0.2130
     79  OG        14.2320   64.4490    6.1130 O.3   172  SER172     -0.2179
     80  N         12.3720   63.0830    8.8900 N.am  173  CYS173     -0.1953
     81  CA        11.5650   63.5590    9.9930 C.3   173  CYS173      0.1843
     82  C         12.4410   63.7760   11.2320 C.2   173  CYS173      0.2625
     83  O         13.6350   63.5590   11.2200 O.2   173  CYS173     -0.2714
     84  CB        10.3990   62.5750   10.2450 C.3   173  CYS173      0.0997
     85  SG         8.9560   63.2600   11.1470 S.3   173  CYS173     -0.0797
     86  N         11.8070   64.2030   12.3160 N.am  174  GLN174     -0.1963
     87  CA        12.5080   64.2560   13.5990 C.3   174  GLN174      0.1733
     88  C         13.1420   62.9000   13.8900 C.2   174  GLN174      0.2616
     89  O         12.5800   61.8340   13.6000 O.2   174  GLN174     -0.2715
     90  CB        11.5200   64.6400   14.7060 C.3   174  GLN174      0.0408
     91  CG        11.2450   66.1420   14.7660 C.3   174  GLN174      0.0908
     92  CD        10.4820   66.6630   13.5780 C.2   174  GLN174      0.2608
     93  OE1        9.5090   66.0270   13.1580 O.2   174  GLN174     -0.2717
     94  NE2       10.9140   67.8050   13.0280 N.am  174  GLN174     -0.0878
     95  N         14.3500   62.9460   14.4500 N.am  175  GLY175     -0.1955
     96  CA        15.1470   61.7700   14.7040 C.3   175  GLY175      0.1869
     97  C         16.1020   61.4240   13.5710 C.2   175  GLY175      0.2309
     98  O         16.9890   60.6050   13.7760 O.2   175  GLY175     -0.2863
     99  N         17.6870   63.9650   11.8330 N.3   177  SER177     -0.1217
    100  CA        18.5870   65.0870   11.6560 C.3   177  SER177      0.1889
    101  C         20.0080   64.6610   11.7980 C.2   177  SER177      0.2288
    102  O         20.3870   63.8290   12.6150 O.2   177  SER177     -0.2866
    103  CB        18.3180   66.2280   12.6470 C.3   177  SER177      0.2089
    104  OG        17.1320   66.9690   12.2500 O.3   177  SER177     -0.2183
    105  N         20.4160   65.9120    6.7610 N.3   191  VAL191     -0.1231
    106  CA        19.0580   66.1300    7.2090 C.3   191  VAL191      0.1692
    107  C         19.0580   67.3280    8.1820 C.2   191  VAL191      0.2593
    108  O         19.7140   67.2820    9.2160 O.2   191  VAL191     -0.2718
    109  CB        18.4620   64.8920    7.8520 C.3   191  VAL191      0.0266
    110  CG1       17.0770   65.1890    8.3470 C.3   191  VAL191      0.0020
    111  CG2       18.4970   63.6770    6.9560 C.3   191  VAL191      0.0020
    112  N         18.2840   68.3580    7.8430 N.am  192  SER192     -0.1938
    113  CA        18.2700   69.6320    8.5970 C.3   192  SER192      0.2055
    114  C         16.9180   70.0170    9.1370 C.2   192  SER192      0.2643
    115  O         16.7340   70.0270   10.3690 O.2   192  SER192     -0.2714
    116  CB        18.9540   70.7110    7.7920 C.3   192  SER192      0.2130
    117  OG        19.0390   71.9480    8.5120 O.3   192  SER192     -0.2179
    118  N         15.9420   70.3260    8.2870 N.am  193  TRP193     -0.1959
    119  CA        14.6820   70.8590    8.7790 C.3   193  TRP193      0.1771
    120  C         13.5810   70.6720    7.7520 C.2   193  TRP193      0.2620
    121  O         13.8140   70.2820    6.6260 O.2   193  TRP193     -0.2715
    122  CB        14.8170   72.3160    9.1920 C.3   193  TRP193      0.0590
    123  CG        15.1380   73.3190    8.1030 C.ar  193  TRP193      0.0006
    124  CD1       16.3630   73.6790    7.6400 C.ar  193  TRP193      0.0946
    125  CD2       14.1950   74.1740    7.4270 C.ar  193  TRP193      0.0152
    126  NE1       16.2460   74.6930    6.7100 N.ar  193  TRP193     -0.2442
    127  CE2       14.9240   74.9890    6.5530 C.ar  193  TRP193      0.0810
    128  CE3       12.8150   74.2820    7.4390 C.ar  193  TRP193      0.0012
    129  CZ2       14.3080   75.9490    5.7420 C.ar  193  TRP193      0.0191
    130  CZ3       12.1970   75.2300    6.6250 C.ar  193  TRP193      0.0001
    131  CH2       12.9510   76.0250    5.8000 C.ar  193  TRP193      0.0015
    132  N         12.3610   70.9740    8.1700 N.am  194  GLY194     -0.1940
    133  CA        11.2100   71.0120    7.2690 C.3   194  GLY194      0.2014
    134  C          9.9760   71.4460    8.0410 C.2   194  GLY194      0.2640
    135  O          9.9990   71.4270    9.2790 O.2   194  GLY194     -0.2714
    136  N          8.8980   71.7890    7.3470 N.am  195  SER195     -0.1935
    137  CA         7.6530   72.0970    8.0220 C.3   195  SER195      0.2055
    138  C          6.8570   70.8350    8.1270 C.2   195  SER195      0.2644
    139  O          6.3410   70.2600    7.1560 O.2   195  SER195     -0.2714
    140  CB         6.8550   73.1430    7.2390 C.3   195  SER195      0.2130
    141  OG         5.6170   73.3710    7.9020 O.3   195  SER195     -0.2179
    142  N          6.5950   70.2710    9.4050 N.am  196  GLY196     -0.1939
    143  CA         6.0310   68.9440    9.5640 C.3   196  GLY196      0.2014
    144  C          6.9190   67.8950    8.9540 C.2   196  GLY196      0.2639
    145  O          8.1010   68.1330    8.7270 O.2   196  GLY196     -0.2714
    146  N          6.3410   66.7450    8.6620 N.am  197  CYS197     -0.1967
    147  CA         7.0630   65.7290    7.8830 C.3   197  CYS197      0.1712
    148  C          6.0980   65.0980    6.9000 C.2   197  CYS197      0.2296
    149  O          4.9890   64.7240    7.2610 O.2   197  CYS197     -0.2864
    150  CB         8.0140   64.7640    8.6020 C.3   197  CYS197      0.0983
    151  SG         7.4090   63.6920    9.8770 S.3   197  CYS197     -0.0798
    152  N          5.6120   70.5870    1.2400 N.3   202  LYS202     -0.1231
    153  CA         6.5690   70.9640    2.2800 C.3   202  LYS202      0.1678
    154  C          7.6600   69.8800    2.2940 C.2   202  LYS202      0.2434
    155  O          7.6650   68.9710    3.1520 O.2   202  LYS202     -0.2733
    156  CB         5.8680   71.0450    3.6300 C.3   202  LYS202      0.0284
    157  CG         4.9190   72.1650    3.8130 C.3   202  LYS202      0.0035
    158  CD         4.1160   72.1070    5.0900 C.3   202  LYS202      0.0206
    159  CE         2.6820   72.5330    4.9320 C.3   202  LYS202      0.1093
    160  NZ         1.7640   71.3320    5.1890 N.3   202  LYS202     -0.1314
    161  N          8.5960   69.9590    1.3530 N.am  203  PRO203     -0.2718
    162  CA         9.6360   68.9450    1.2410 C.3   203  PRO203      0.1535
    163  C         10.6900   69.0950    2.3380 C.2   203  PRO203      0.2599
    164  O         10.6900   70.0850    3.0670 O.2   203  PRO203     -0.2715
    165  CB        10.2220   69.2180   -0.1610 C.3   203  PRO203      0.0310
    166  CG        10.0670   70.7240   -0.3210 C.3   203  PRO203      0.0237
    167  CD         8.7290   70.9980    0.3070 C.3   203  PRO203      0.0939
    168  N         11.5830   68.1420    2.4380 N.am  204  GLY204     -0.1941
    169  CA        12.6730   68.2840    3.3650 C.3   204  GLY204      0.2014
    170  C         13.6860   69.2850    2.9080 C.2   204  GLY204      0.2639
    171  O         13.9000   69.4590    1.7070 O.2   204  GLY204     -0.2714
    172  N         14.3720   69.9000    3.8730 N.am  205  VAL205     -0.1963
    173  CA        15.4270   70.8620    3.6340 C.3   205  VAL205      0.1727
    174  C         16.7030   70.3150    4.2260 C.2   205  VAL205      0.2616
    175  O         16.7470   69.7960    5.3810 O.2   205  VAL205     -0.2715
    176  CB        15.1120   72.2660    4.1730 C.3   205  VAL205      0.0290
    177  CG1       16.1650   73.2230    3.6530 C.3   205  VAL205      0.0023
    178  CG2       13.7360   72.7020    3.7360 C.3   205  VAL205      0.0023
    179  N         17.7780   70.3720    3.4460 N.am  206  TYR206     -0.1974
    180  CA        19.0330   69.7000    3.7080 C.3   206  TYR206      0.1639
    181  C         20.2040   70.6470    3.5760 C.2   206  TYR206      0.2290
    182  O         20.2400   71.5120    2.6960 O.2   206  TYR206     -0.2864
    183  CB        19.1920   68.5230    2.6960 C.3   206  TYR206      0.0560
    184  CG        18.0600   67.5360    2.8210 C.ar  206  TYR206     -0.0198
    185  CD1       18.1150   66.5310    3.7730 C.ar  206  TYR206     -0.0009
    186  CD2       16.9060   67.6200    2.0720 C.ar  206  TYR206     -0.0009
    187  CE1       17.0760   65.6610    3.9750 C.ar  206  TYR206      0.0417
    188  CE2       15.8400   66.7510    2.2710 C.ar  206  TYR206      0.0417
    189  CZ        15.9360   65.7550    3.2450 C.ar  206  TYR206      0.1957
    190  OH        14.8890   64.8800    3.4900 O.3   206  TYR206     -0.2866
@<TRIPOS>BOND
     1   166   165    1
     2   166   167    1
     3   165   162    1
     4   167   161    1
     5    45    46    1
     6   152   153    1
     7   162   161    1
     8   162   163    1
     9   161   154   am
    10    47    48    2
    11    47    46    1
    12   171   170    2
    13    46    49    1
    14   186   188   ar
    15   186   184   ar
    16    51    53   ar
    17    51    50   ar
    18   188   189   ar
    19   153   154    1
    20   153   156    1
    21   154   155    2
    22   163   168   am
    23   163   164    2
    24    49    50    1
    25   168   169    1
    26    53    55   ar
    27   183   184    1
    28   183   180    1
    29   182   181    2
    30   184   185   ar
    31    50    52   ar
    32   170   169    1
    33   170   172   am
    34   189   190    1
    35   189   187   ar
    36    66    67    1
    37    57    58    1
    38   179   180    1
    39   179   174   am
    40   181   180    1
    41   156   157    1
    42   173   172    1
    43   173   176    1
    44   173   174    1
    45   177   176    1
    46    59    58    1
    47    59    60    2
    48   178   176    1
    49    67    70    1
    50    67    68    1
    51   185   187   ar
    52    55    56    1
    53    55    54   ar
    54   157   158    1
    55    52    54   ar
    56    73    71   ar
    57   174   175    2
    58    58    61    1
    59    70    71    1
    60    71    72   ar
    61    65    63   am
    62    68    74   am
    63    68    69    2
    64    61    62    1
    65   159   158    1
    66   159   160    1
    67    74    75    1
    68    62    63    1
    69    63    64    2
    70   129   131   ar
    71   129   127   ar
    72   131   130   ar
    73    79    78    1
    74    78    75    1
    75    75    76    1
    76   127   126   ar
    77   127   125   ar
    78   130   128   ar
    79   121   120    2
    80   126   124   ar
    81   105   106    1
    82   148   149    2
    83   148   147    1
    84   111   109    1
    85   139   138    2
    86   106   109    1
    87   106   107    1
    88   140   141    1
    89   140   137    1
    90   133   134    1
    91   133   132    1
    92    77    76    2
    93   136   137    1
    94   136   134   am
    95   125   128   ar
    96   125   123   ar
    97    76    80   am
    98   124   123   ar
    99   120   132   am
   100   120   119    1
   101   116   117    1
   102   116   113    1
   103   112   107   am
   104   112   113    1
   105   109   110    1
   106   147   150    1
   107   147   146    1
   108   137   138    1
   109   134   135    2
   110   123   122    1
   111   138   142   am
   112   107   108    2
   113   118   119    1
   114   118   114   am
   115   113   114    1
   116   150   151    1
   117   146   144   am
   118   145   144    2
   119   119   122    1
   120    32    31    2
   121    37    38    1
   122    80    81    1
   123   144   143    1
   124    40    39    2
   125   114   115    2
   126    31    30    1
   127   142   143    1
   128    39    38    1
   129    41    38    1
   130    41    42    1
   131   151    85    1
   132    81    84    1
   133    81    82    1
   134    33    30    1
   135    33    34    1
   136    84    85    1
   137    30    29    1
   138    44    42   ar
   139    35    34    1
   140    42    43   ar
   141    34    36    1
   142    83    82    2
   143    82    86   am
   144   100   101    1
   145   100    99    1
   146   100   103    1
   147   101   102    2
   148    11    12    1
   149   104   103    1
   150    86    87    1
   151    12    13    1
   152    12    15    1
   153    18    20   ar
   154    18    16   ar
   155     9     7   ar
   156     9    10   ar
   157    20    21   ar
   158     7     6   ar
   159    94    92   am
   160    13    14    2
   161    93    92    2
   162    15    16    1
   163    97    98    2
   164    97    96    1
   165    92    91    1
   166    87    88    1
   167    87    90    1
   168    89    88    2
   169    16    17   ar
   170    88    95   am
   171    10     8   ar
   172    21    22    1
   173    21    19   ar
   174     6     8   ar
   175     6     5    1
   176    95    96    1
   177     1     2    1
   178    23    24    1
   179    90    91    1
   180    25    24    1
   181    25    26    2
   182    17    19   ar
   183     5     2    1
   184    24    27    1
   185     2     3    1
   186     3     4    2
   187    27    28    1
