@<TRIPOS>MOLECULE
tmp/2agkA00.pdb
 101 96 0 0 0
SMALL
GASTEIGER

@<TRIPOS>ATOM
      1  N         10.4240   29.7180   14.8140 N.3     6  CYS6       -0.1235
      2  CA        11.7720   30.2700   14.7550 C.3     6  CYS6        0.1677
      3  C         11.7990   31.7040   15.2520 C.2     6  CYS6        0.2270
      4  O         10.7700   32.3670   15.3350 O.2     6  CYS6       -0.2867
      5  CB        12.3610   30.1810   13.3440 C.3     6  CYS6        0.0956
      6  SG        11.4770   31.1090   12.0900 S.3     6  CYS6       -0.0801
      7  N         14.5780   34.7340   14.2290 N.3     8  ASP8       -0.1239
      8  CA        15.8150   35.1630   13.5810 C.3     8  ASP8        0.1674
      9  C         16.2170   36.5180   14.1420 C.2     8  ASP8        0.2266
     10  O         15.3840   37.4130   14.2830 O.2     8  ASP8       -0.2867
     11  CB        15.6420   35.2480   12.0630 C.3     8  ASP8        0.1410
     12  CG        15.6770   33.8830   11.3940 C.2     8  ASP8        0.3668
     13  OD1       15.3360   32.8900   12.0650 O.co2   8  ASP8       -0.2456
     14  OD2       16.0520   33.7940   10.2060 O.co2   8  ASP8       -0.2456
     15  N         13.7660   27.0880   16.7950 N.3    36  HIS36      -0.1241
     16  CA        15.1570   27.5190   16.6300 C.3    36  HIS36       0.1621
     17  C         15.3210   29.0270   16.6390 C.2    36  HIS36       0.2264
     18  O         14.6230   29.7350   15.9190 O.2    36  HIS36      -0.2867
     19  CB        15.8550   26.8810   15.4130 C.3    36  HIS36       0.0745
     20  CG        15.1430   27.0520   14.1020 C.ar   36  HIS36       0.0817
     21  ND1       14.3300   26.0710   13.5660 N.ar   36  HIS36      -0.2268
     22  CD2       15.1810   28.0490   13.1840 C.ar   36  HIS36       0.1154
     23  CE1       13.8740   26.4730   12.3940 C.ar   36  HIS36       0.1986
     24  NE2       14.3800   27.6660   12.1320 N.ar   36  HIS36      -0.2212
     25  N         17.9850   31.8130   15.6610 N.3    38  ILE38      -0.1245
     26  CA        19.1240   31.9060   14.7440 C.3    38  ILE38       0.1561
     27  C         19.7160   33.3030   14.7850 C.2    38  ILE38       0.2260
     28  O         19.0280   34.2850   14.5010 O.2    38  ILE38      -0.2867
     29  CB        18.7000   31.5810   13.2880 C.3    38  ILE38       0.0252
     30  CG1       18.0450   30.1960   13.2020 C.3    38  ILE38       0.0019
     31  CG2       19.8700   31.7340   12.3130 C.3    38  ILE38       0.0019
     32  CD1       18.9430   29.0380   13.5630 C.3    38  ILE38       0.0001
     33  N         18.5480   20.2300   10.4210 N.3   155  LEU155     -0.1245
     34  CA        17.7480   21.3610    9.9670 C.3   155  LEU155      0.1561
     35  C         18.1850   21.6000    8.5230 C.2   155  LEU155      0.2260
     36  O         19.3320   21.9480    8.2750 O.2   155  LEU155     -0.2867
     37  CB        18.0140   22.5790   10.8490 C.3   155  LEU155      0.0270
     38  CG        17.0450   23.7690   10.7310 C.3   155  LEU155      0.0019
     39  CD1       17.4190   24.8330   11.7510 C.3   155  LEU155      0.0001
     40  CD2       16.9350   24.3800    9.3440 C.3   155  LEU155      0.0001
     41  N         17.8170   23.6800    5.2340 N.3   157  HIS157     -0.1226
     42  CA        17.4390   25.0460    4.9320 C.3   157  HIS157      0.1752
     43  C         17.5800   25.2420    3.4230 C.2   157  HIS157      0.2595
     44  O         18.6800   25.1350    2.8750 O.2   157  HIS157     -0.2718
     45  CB        18.3660   25.9650    5.7490 C.3   157  HIS157      0.0759
     46  CG        18.1430   27.4310    5.5450 C.ar  157  HIS157      0.0818
     47  ND1       19.1870   28.3280    5.4710 N.ar  157  HIS157     -0.2268
     48  CD2       17.0100   28.1620    5.4290 C.ar  157  HIS157      0.1154
     49  CE1       18.7070   29.5470    5.3030 C.ar  157  HIS157      0.1986
     50  NE2       17.3880   29.4730    5.2670 N.ar  157  HIS157     -0.2212
     51  N         16.4630   25.4600    2.7370 N.am  158  ALA158     -0.1980
     52  CA        16.4860   25.7070    1.2940 C.3   158  ALA158      0.1597
     53  C         16.1340   27.1550    0.9560 C.2   158  ALA158      0.2287
     54  O         15.3610   27.7920    1.6630 O.2   158  ALA158     -0.2864
     55  CB        15.5570   24.7610    0.5760 C.3   158  ALA158      0.0319
     56  N         13.2420   24.0400    6.4950 N.3   184  ALA184     -0.1231
     57  CA        13.0020   25.4820    6.5000 C.3   184  ALA184      0.1694
     58  C         13.2450   25.9550    5.0900 C.2   184  ALA184      0.2593
     59  O         14.3910   26.0330    4.6390 O.2   184  ALA184     -0.2718
     60  CB        13.9310   26.1820    7.4650 C.3   184  ALA184      0.0304
     61  N         12.1770   26.2570    4.3740 N.am  185  GLY185     -0.1942
     62  CA        12.3290   26.5760    2.9670 C.3   185  GLY185      0.2014
     63  C         11.2360   27.5030    2.5380 C.2   185  GLY185      0.2639
     64  O         10.6180   27.2740    1.5120 O.2   185  GLY185     -0.2714
     65  N         10.9860   28.5250    3.3530 N.am  186  GLY186     -0.1939
     66  CA        10.1330   29.6380    2.9650 C.3   186  GLY186      0.2014
     67  C          8.6480   29.3640    2.8130 C.2   186  GLY186      0.2638
     68  O          7.9690   30.0660    2.0690 O.2   186  GLY186     -0.2714
     69  N          8.1320   28.3510    3.5060 N.am  187  ALA187     -0.1977
     70  CA         6.7040   28.0220    3.4700 C.3   187  ALA187      0.1597
     71  C          5.8140   29.2370    3.7510 C.2   187  ALA187      0.2287
     72  O          6.0270   29.9550    4.7280 O.2   187  ALA187     -0.2864
     73  CB         6.4190   26.9240    4.4680 C.3   187  ALA187      0.0319
     74  N          9.1670   24.4050    9.2290 N.3   207  THR207     -0.1203
     75  CA         9.3020   25.7220    9.8240 C.3   207  THR207      0.1994
     76  C          8.3880   26.7320    9.1370 C.2   207  THR207      0.2618
     77  O          8.2260   26.6950    7.9190 O.2   207  THR207     -0.2717
     78  CB        10.7430   26.2170    9.6780 C.3   207  THR207      0.1784
     79  OG1       11.6300   25.2450   10.2290 O.3   207  THR207     -0.2211
     80  CG2       10.9450   27.5180   10.4260 C.3   207  THR207      0.0376
     81  N          7.8020   27.6290    9.9260 N.am  208  PHE208     -0.1961
     82  CA         7.2220   28.8550    9.3850 C.3   208  PHE208      0.1771
     83  C          7.8860   30.0080   10.1170 C.2   208  PHE208      0.2620
     84  O          8.0680   29.9690   11.3450 O.2   208  PHE208     -0.2715
     85  CB         5.7200   28.9280    9.6260 C.3   208  PHE208      0.0574
     86  CG         4.9110   28.0250    8.7420 C.ar  208  PHE208     -0.0200
     87  CD1        4.7040   26.7050    9.0990 C.ar  208  PHE208     -0.0042
     88  CD2        4.3330   28.4960    7.5720 C.ar  208  PHE208     -0.0042
     89  CE1        3.9490   25.8630    8.3070 C.ar  208  PHE208     -0.0003
     90  CE2        3.5630   27.6500    6.7680 C.ar  208  PHE208     -0.0003
     91  CZ         3.3800   26.3390    7.1330 C.ar  208  PHE208     -0.0000
     92  N          8.2610   31.0250    9.3500 N.am  209  GLY209     -0.1940
     93  CA         8.9030   32.2040    9.9100 C.3   209  GLY209      0.2014
     94  C          8.2100   33.4740    9.4680 C.2   209  GLY209      0.2639
     95  O          7.1230   33.7980    9.9350 O.2   209  GLY209     -0.2714
     96  N          8.8470   34.1740    8.5370 N.am  210  SER210     -0.1949
     97  CA         8.4370   35.5220    8.1390 C.3   210  SER210      0.1924
     98  C          7.0100   35.6180    7.5880 C.2   210  SER210      0.2314
     99  O          6.3910   36.6720    7.6440 O.2   210  SER210     -0.2863
    100  CB         9.4360   36.0850    7.1280 C.3   210  SER210      0.2116
    101  OG         9.4600   35.2940    5.9540 O.3   210  SER210     -0.2180
@<TRIPOS>BOND
     1    55    52    1
     2    53    52    1
     3    53    54    2
     4    52    51    1
     5    64    63    2
     6    68    67    2
     7    63    62    1
     8    63    65   am
     9    51    43   am
    10    67    66    1
    11    67    69   am
    12    44    43    2
    13    66    65    1
    14    62    61    1
    15    43    42    1
    16    70    69    1
    17    70    71    1
    18    70    73    1
    19    71    72    2
    20    61    58   am
    21    59    58    2
    22    42    41    1
    23    42    45    1
    24    58    57    1
    25    50    49   ar
    26    50    48   ar
    27    49    47   ar
    28    48    46   ar
    29    47    46   ar
    30    46    45    1
    31   101   100    1
    32    56    57    1
    33    57    60    1
    34    90    91   ar
    35    90    88   ar
    36   100    97    1
    37    91    89   ar
    38    88    86   ar
    39    98    99    2
    40    98    97    1
    41    77    76    2
    42    97    96    1
    43    36    35    2
    44    89    87   ar
    45    35    34    1
    46    96    94   am
    47    86    87   ar
    48    86    85    1
    49    76    75    1
    50    76    81   am
    51    74    75    1
    52    40    38    1
    53    92    93    1
    54    92    83   am
    55    82    85    1
    56    82    81    1
    57    82    83    1
    58    94    93    1
    59    94    95    2
    60    78    75    1
    61    78    79    1
    62    78    80    1
    63    34    33    1
    64    34    37    1
    65    83    84    2
    66    14    12   ar
    67    38    37    1
    68    38    39    1
    69    12    11    1
    70    12    13   ar
    71    11     8    1
    72     6     5    1
    73    24    23   ar
    74    24    22   ar
    75    31    29    1
    76    23    21   ar
    77    22    20   ar
    78    30    29    1
    79    30    32    1
    80    29    26    1
    81     5     2    1
    82    21    20   ar
    83     8     9    1
    84     8     7    1
    85    20    19    1
    86     9    10    2
    87    28    27    2
    88    26    27    1
    89    26    25    1
    90     2     1    1
    91     2     3    1
    92     3     4    2
    93    19    16    1
    94    18    17    2
    95    16    17    1
    96    16    15    1
