@<TRIPOS>MOLECULE
tmp/2aglA00.pdb
 95 93 0 0 0
SMALL
GASTEIGER

@<TRIPOS>ATOM
      1  N          2.3330    8.5370    4.9270 N.3    14  ASP14      -0.1225
      2  CA         1.5590    8.3980    6.1770 C.3    14  ASP14       0.1805
      3  C          2.3470    7.3880    6.9760 C.2    14  ASP14       0.2598
      4  O          2.2090    6.1810    6.7720 O.2    14  ASP14      -0.2718
      5  CB         0.1300    7.8990    5.8960 C.3    14  ASP14       0.1424
      6  CG        -0.6630    7.5520    7.1450 C.2    14  ASP14       0.3668
      7  OD1       -0.3230    8.0090    8.2590 O.co2  14  ASP14      -0.2456
      8  OD2       -1.6840    6.8180    7.1080 O.co2  14  ASP14      -0.2456
      9  N          3.2260    7.8570    7.8400 N.am   15  GLY15      -0.1957
     10  CA         4.1030    6.9400    8.5720 C.3    15  GLY15       0.1869
     11  C          5.2670    7.6550    9.1980 C.2    15  GLY15       0.2309
     12  O          5.2890    8.8740    9.2740 O.2    15  GLY15      -0.2863
     13  N          6.2710    4.2460   -2.0270 N.3    55  TYR55      -0.1241
     14  CA         6.3650    4.2920   -0.5650 C.3    55  TYR55       0.1605
     15  C          6.3150    2.8810   -0.0020 C.2    55  TYR55       0.2264
     16  O          5.2950    2.4080    0.5100 O.2    55  TYR55      -0.2867
     17  CB         5.2520    5.1580    0.0150 C.3    55  TYR55       0.0534
     18  CG         5.3810    6.6010   -0.4390 C.ar   55  TYR55      -0.0201
     19  CD1        4.5420    7.1250   -1.3980 C.ar   55  TYR55      -0.0009
     20  CD2        6.3550    7.4130    0.0910 C.ar   55  TYR55      -0.0009
     21  CE1        4.6670    8.4410   -1.8070 C.ar   55  TYR55       0.0417
     22  CE2        6.5000    8.7300   -0.3320 C.ar   55  TYR55       0.0417
     23  CZ         5.6250    9.2190   -1.2440 C.ar   55  TYR55       0.1957
     24  OH         5.7580   10.5340   -1.6630 O.3    55  TYR55      -0.2866
     25  N          7.1900    0.2660    2.7150 N.3    57  ASP57      -0.1239
     26  CA         7.3730    0.2560    4.1680 C.3    57  ASP57       0.1674
     27  C          8.5230   -0.6720    4.5190 C.2    57  ASP57       0.2266
     28  O          8.9890   -1.4790    3.7020 O.2    57  ASP57      -0.2867
     29  CB         6.0980   -0.1820    4.9030 C.3    57  ASP57       0.1410
     30  CG         4.9960    0.8450    4.8720 C.2    57  ASP57       0.3668
     31  OD1        5.2730    2.0550    4.6950 O.co2  57  ASP57      -0.2456
     32  OD2        3.8220    0.5110    5.1150 O.co2  57  ASP57      -0.2456
     33  N         -2.9460    5.6010    1.2640 N.3    85  ASN85      -0.1225
     34  CA        -1.9420    5.4970    2.3370 C.3    85  ASN85       0.1785
     35  C         -2.5160    5.3340    3.7610 C.2    85  ASN85       0.2597
     36  O         -1.7460    5.4900    4.7000 O.2    85  ASN85      -0.2718
     37  CB        -0.9110    6.6250    2.2640 C.3    85  ASN85       0.1169
     38  CG        -1.4300    7.9670    2.7140 C.2    85  ASN85       0.2627
     39  OD1       -2.5250    8.0820    3.2490 O.2    85  ASN85      -0.2716
     40  ND2       -0.6100    9.0050    2.4890 N.am   85  ASN85      -0.0877
     41  N         -3.7890    4.9740    3.8960 N.am   86  ASP86      -0.1960
     42  CA        -4.3570    4.6650    5.2300 C.3    86  ASP86       0.1840
     43  C         -4.4090    3.1590    5.5060 C.2    86  ASP86       0.2622
     44  O         -5.1270    2.7020    6.3860 O.2    86  ASP86      -0.2715
     45  CB        -5.7660    5.2250    5.4000 C.3    86  ASP86       0.1450
     46  CG        -5.8610    6.7180    5.2640 C.2    86  ASP86       0.3671
     47  OD1       -4.8800    7.4350    5.4750 O.co2  86  ASP86      -0.2456
     48  OD2       -6.9660    7.2240    4.9730 O.co2  86  ASP86      -0.2456
     49  N         -3.6560    2.4100    4.7230 N.am   87  VAL87      -0.1963
     50  CA        -3.4390    0.9790    4.9670 C.3    87  VAL87       0.1727
     51  C         -1.9640    0.6860    5.2250 C.2    87  VAL87       0.2616
     52  O         -1.0840    1.4210    4.8200 O.2    87  VAL87      -0.2715
     53  CB        -3.9730    0.0890    3.8270 C.3    87  VAL87       0.0290
     54  CG1       -5.4990    0.1320    3.8100 C.3    87  VAL87       0.0023
     55  CG2       -3.3370    0.4590    2.4570 C.3    87  VAL87       0.0023
     56  N         -1.7120   -0.4140    5.9230 N.am   88  ASN88      -0.1958
     57  CA        -0.3560   -0.8230    6.2550 C.3    88  ASN88       0.1819
     58  C          0.2710   -1.5240    5.0480 C.2    88  ASN88       0.2621
     59  O         -0.1450   -2.6360    4.7400 O.2    88  ASN88      -0.2715
     60  CB        -0.4310   -1.7820    7.4350 C.3    88  ASN88       0.1195
     61  CG         0.9120   -2.3020    7.8530 C.2    88  ASN88       0.2630
     62  OD1        1.9610   -1.7310    7.5400 O.2    88  ASN88      -0.2716
     63  ND2        0.8820   -3.4240    8.5840 N.am   88  ASN88      -0.0877
     64  N          1.2230   -0.9000    4.3600 N.am   89  TRP89      -0.1974
     65  CA         1.8220   -1.5150    3.1770 C.3    89  TRP89       0.1640
     66  C          2.7560   -2.6810    3.5350 C.2    89  TRP89       0.2290
     67  O          3.2850   -3.3290    2.6320 O.2    89  TRP89      -0.2864
     68  CB         2.3890   -0.4630    2.1950 C.3    89  TRP89       0.0576
     69  CG         1.2440    0.0730    1.3800 C.ar   89  TRP89       0.0006
     70  CD1        0.6810    1.3420    1.4230 C.ar   89  TRP89       0.0946
     71  CD2        0.4510   -0.6680    0.4580 C.ar   89  TRP89       0.0152
     72  NE1       -0.3860    1.4190    0.5680 N.ar   89  TRP89      -0.2442
     73  CE2       -0.5620    0.1920   -0.0340 C.ar   89  TRP89       0.0810
     74  CE3        0.5310   -1.9700   -0.0550 C.ar   89  TRP89       0.0012
     75  CZ2       -1.5000   -0.2260   -0.9710 C.ar   89  TRP89       0.0191
     76  CZ3       -0.3850   -2.3790   -0.9820 C.ar   89  TRP89       0.0001
     77  CH2       -1.3850   -1.5080   -1.4460 C.ar   89  TRP89       0.0015
     78  N          4.4470   -2.7210   11.4820 N.3    98  PHE98      -0.1241
     79  CA         4.9160   -1.5550   10.7500 C.3    98  PHE98       0.1605
     80  C          6.0020   -0.8090   11.5010 C.2    98  PHE98       0.2264
     81  O          5.8170   -0.4090   12.6510 O.2    98  PHE98      -0.2867
     82  CB         3.7700   -0.6070   10.4520 C.3    98  PHE98       0.0534
     83  CG         4.2270    0.7250    9.8970 C.ar   98  PHE98      -0.0203
     84  CD1        4.7740    0.8420    8.6110 C.ar   98  PHE98      -0.0042
     85  CD2        4.1350    1.8670   10.6770 C.ar   98  PHE98      -0.0042
     86  CE1        5.1610    2.0590    8.1410 C.ar   98  PHE98      -0.0003
     87  CE2        4.5420    3.0880   10.1990 C.ar   98  PHE98      -0.0003
     88  CZ         5.0520    3.1800    8.9380 C.ar   98  PHE98      -0.0000
     89  N          8.3610    4.1610    6.9250 N.3   101  THR101     -0.1218
     90  CA         8.0740    4.3040    5.4870 C.3   101  THR101      0.1862
     91  C          9.2780    4.9400    4.7750 C.2   101  THR101      0.2287
     92  O          9.8520    5.9200    5.2620 O.2   101  THR101     -0.2866
     93  CB         6.8780    5.2190    5.3310 C.3   101  THR101      0.1770
     94  OG1        5.7650    4.6790    6.0540 O.3   101  THR101     -0.2211
     95  CG2        6.4050    5.2990    3.8800 C.3   101  THR101      0.0375
@<TRIPOS>BOND
     1    13    14    1
     2    21    19   ar
     3    21    23   ar
     4    24    23    1
     5    77    76   ar
     6    77    75   ar
     7    19    18   ar
     8    23    22   ar
     9    76    74   ar
    10    75    73   ar
    11    14    15    1
    12    14    17    1
    13    18    17    1
    14    18    20   ar
    15    22    20   ar
    16    74    71   ar
    17    73    71   ar
    18    73    72   ar
    19    15    16    2
    20    71    69   ar
    21    72    70   ar
    22    33    34    1
    23    69    70   ar
    24    69    68    1
    25    68    65    1
    26    37    34    1
    27    37    38    1
    28    34    35    1
    29    55    53    1
    30    40    38   am
    31    67    66    2
    32    38    39    2
    33    25    26    1
    34    65    66    1
    35    65    64    1
    36    28    27    2
    37    35    41   am
    38    35    36    2
    39    54    53    1
    40    53    50    1
    41    95    93    1
    42    41    42    1
    43    26    27    1
    44    26    29    1
    45    64    58   am
    46    31    30   ar
    47    49    50    1
    48    49    43   am
    49    59    58    2
    50    91    92    2
    51    91    90    1
    52    52    51    2
    53    30    29    1
    54    30    32   ar
    55     1     2    1
    56    50    51    1
    57    48    46   ar
    58    58    57    1
    59    51    56   am
    60    42    45    1
    61    42    43    1
    62    46    45    1
    63    46    47   ar
    64    93    90    1
    65    93    94    1
    66    90    89    1
    67    43    44    2
    68     5     2    1
    69     5     6    1
    70    56    57    1
    71     2     3    1
    72    57    60    1
    73     4     3    2
    74     3     9   am
    75     8     6   ar
    76     6     7   ar
    77    60    61    1
    78    62    61    2
    79     9    10    1
    80    61    63   am
    81    86    84   ar
    82    86    88   ar
    83    10    11    1
    84    84    83   ar
    85    88    87   ar
    86    11    12    2
    87    83    82    1
    88    83    85   ar
    89    87    85   ar
    90    82    79    1
    91    79    78    1
    92    79    80    1
    93    80    81    2
