@<TRIPOS>MOLECULE
tmp/2agoC00.pdb
 115 112 0 0 0
SMALL
GASTEIGER

@<TRIPOS>ATOM
      1  N         32.2160    9.7210    8.5260 N.3     7  ASP7       -0.1225
      2  CA        30.8140   10.0920    8.2920 C.3     7  ASP7        0.1805
      3  C         30.1680    8.9100    7.5550 C.2     7  ASP7        0.2598
      4  O         30.5640    8.6000    6.4320 O.2     7  ASP7       -0.2718
      5  CB        30.7710   11.3420    7.3930 C.3     7  ASP7        0.1424
      6  CG        29.3890   11.9940    7.3150 C.2     7  ASP7        0.3668
      7  OD1       28.3810   11.2700    7.2410 O.co2   7  ASP7       -0.2456
      8  OD2       29.3080   13.2440    7.3030 O.co2   7  ASP7       -0.2456
      9  N         29.1910    8.2400    8.1610 N.am    8  PHE8       -0.1962
     10  CA        28.5740    7.1170    7.4610 C.3     8  PHE8        0.1771
     11  C         27.7070    7.6510    6.3300 C.2     8  PHE8        0.2620
     12  O         26.9930    8.6370    6.4940 O.2     8  PHE8       -0.2715
     13  CB        27.7250    6.2640    8.4020 C.3     8  PHE8        0.0574
     14  CG        28.3940    5.9510    9.7060 C.ar    8  PHE8       -0.0200
     15  CD1       29.7860    5.9390    9.8080 C.ar    8  PHE8       -0.0042
     16  CD2       27.6270    5.6860   10.8450 C.ar    8  PHE8       -0.0042
     17  CE1       30.4070    5.6760   11.0170 C.ar    8  PHE8       -0.0003
     18  CE2       28.2330    5.4220   12.0610 C.ar    8  PHE8       -0.0003
     19  CZ        29.6310    5.4180   12.1490 C.ar    8  PHE8       -0.0000
     20  N         27.7610    6.9990    5.1780 N.am    9  ASP9       -0.1957
     21  CA        26.9870    7.4750    4.0450 C.3     9  ASP9        0.1840
     22  C         25.5160    7.1050    4.1290 C.2     9  ASP9        0.2622
     23  O         25.1790    5.9660    4.4710 O.2     9  ASP9       -0.2715
     24  CB        27.5710    6.9250    2.7430 C.3     9  ASP9        0.1450
     25  CG        29.0740    7.1080    2.6460 C.2     9  ASP9        0.3671
     26  OD1       29.5720    8.2420    2.8090 O.co2   9  ASP9       -0.2456
     27  OD2       29.7640    6.1030    2.3950 O.co2   9  ASP9       -0.2456
     28  N         24.6550    8.0690    3.7930 N.am   10  TYR10      -0.1960
     29  CA        23.1980    7.8890    3.7930 C.3    10  TYR10       0.1771
     30  C         22.7800    6.7930    4.7790 C.2    10  TYR10       0.2619
     31  O         21.9630    5.9030    4.4760 O.2    10  TYR10      -0.2715
     32  CB        22.7200    7.5690    2.3670 C.3    10  TYR10       0.0574
     33  CG        23.2390    6.2740    1.7680 C.ar   10  TYR10      -0.0198
     34  CD1       22.3980    5.1620    1.6280 C.ar   10  TYR10      -0.0009
     35  CD2       24.5620    6.1580    1.3250 C.ar   10  TYR10      -0.0009
     36  CE1       22.8580    3.9660    1.0640 C.ar   10  TYR10       0.0417
     37  CE2       25.0350    4.9660    0.7600 C.ar   10  TYR10       0.0417
     38  CZ        24.1740    3.8750    0.6350 C.ar   10  TYR10       0.1957
     39  OH        24.6210    2.6870    0.1010 O.3    10  TYR10      -0.2866
     40  N         23.3190    6.9230    5.9890 N.am   11  PHE11      -0.1974
     41  CA        23.1380    5.9460    7.0310 C.3    11  PHE11       0.1639
     42  C         21.8430    5.1900    7.2660 C.2    11  PHE11       0.2290
     43  O         21.8330    3.9650    7.1470 O.2    11  PHE11      -0.2864
     44  CB        23.6140    6.5010    8.3450 C.3    11  PHE11       0.0560
     45  CG        23.9880    5.4310    9.3100 C.ar   11  PHE11      -0.0200
     46  CD1       24.8880    4.4410    8.9290 C.ar   11  PHE11      -0.0042
     47  CD2       23.4200    5.3680   10.5780 C.ar   11  PHE11      -0.0042
     48  CE1       25.2210    3.4040    9.7940 C.ar   11  PHE11      -0.0003
     49  CE2       23.7500    4.3330   11.4500 C.ar   11  PHE11      -0.0003
     50  CZ        24.6530    3.3490   11.0500 C.ar   11  PHE11      -0.0000
     51  N         15.7720   10.4140    5.3770 N.3    45  THR45      -0.1218
     52  CA        16.9200   10.3750    4.4980 C.3    45  THR45       0.1862
     53  C         16.6930    9.3280    3.4070 C.2    45  THR45       0.2287
     54  O         15.9740    8.3430    3.6090 O.2    45  THR45      -0.2866
     55  CB        18.2000   10.0580    5.3090 C.3    45  THR45       0.1770
     56  OG1       19.3190    9.9390    4.4250 O.3    45  THR45      -0.2211
     57  CG2       18.0300    8.7680    6.0900 C.3    45  THR45       0.0375
     58  N         21.2180    7.5020   -2.4330 N.3    48  TYR48      -0.1241
     59  CA        21.4750    8.3740   -3.5720 C.3    48  TYR48       0.1605
     60  C         20.5710    8.1500   -4.7780 C.2    48  TYR48       0.2264
     61  O         20.2090    9.1050   -5.4530 O.2    48  TYR48      -0.2867
     62  CB        22.9580    8.3100   -3.9700 C.3    48  TYR48       0.0534
     63  CG        23.8430    9.0350   -2.9770 C.ar   48  TYR48      -0.0201
     64  CD1       24.2810    8.4020   -1.8110 C.ar   48  TYR48      -0.0009
     65  CD2       24.1580   10.3880   -3.1520 C.ar   48  TYR48      -0.0009
     66  CE1       25.0020    9.0970   -0.8380 C.ar   48  TYR48       0.0417
     67  CE2       24.8780   11.0980   -2.1870 C.ar   48  TYR48       0.0417
     68  CZ        25.2960   10.4490   -1.0280 C.ar   48  TYR48       0.1957
     69  OH        25.9860   11.1570   -0.0570 O.3    48  TYR48      -0.2866
     70  N         17.8740   10.3060   -4.1690 N.3    51  ARG51      -0.1245
     71  CA        18.2440   11.7190   -4.0890 C.3    51  ARG51       0.1563
     72  C         18.2780   12.3520   -5.4700 C.2    51  ARG51       0.2260
     73  O         17.7910   13.4570   -5.6550 O.2    51  ARG51      -0.2867
     74  CB        19.6110   11.9100   -3.4200 C.3    51  ARG51       0.0307
     75  CG        19.6740   11.4110   -1.9930 C.3    51  ARG51       0.0489
     76  CD        20.9230   11.8980   -1.2770 C.3    51  ARG51       0.2205
     77  NE        20.9530   11.4400    0.1120 N.pl3  51  ARG51      -0.0865
     78  CZ        21.9030   11.7600    0.9830 C.cat  51  ARG51       0.5346
     79  NH1       22.9080   12.5440    0.6200 N.pl3  51  ARG51       0.1354
     80  NH2       21.8530   11.2880    2.2180 N.pl3  51  ARG51       0.1354
     81  N         26.0190    9.1750   13.3730 N.3   105  ASP105     -0.1225
     82  CA        26.7690    8.7930   12.1980 C.3   105  ASP105      0.1805
     83  C         28.1200    9.4870   11.9410 C.2   105  ASP105      0.2597
     84  O         28.7350    9.2730   10.8890 O.2   105  ASP105     -0.2718
     85  CB        25.8700    8.9760   10.9800 C.3   105  ASP105      0.1424
     86  CG        25.7600   10.4290   10.5590 C.2   105  ASP105      0.3668
     87  OD1       25.7570   11.3240   11.4410 O.co2 105  ASP105     -0.2456
     88  OD2       25.6720   10.6730    9.3390 O.co2 105  ASP105     -0.2456
     89  N         28.5820   10.3060   12.8770 N.am  106  GLU106     -0.1979
     90  CA        29.8400   11.0080   12.6910 C.3   106  GLU106      0.1602
     91  C         30.7440   10.7750   13.8870 C.2   106  GLU106      0.2287
     92  O         30.2630   10.6920   15.0290 O.2   106  GLU106     -0.2864
     93  CB        29.6060   12.5100   12.5840 C.3   106  GLU106      0.0415
     94  CG        28.9700   13.0080   11.3340 C.3   106  GLU106      0.1163
     95  CD        28.7520   14.5120   11.3920 C.2   106  GLU106      0.3649
     96  OE1       27.8090   14.9570   12.0830 O.co2 106  GLU106     -0.2457
     97  OE2       29.5330   15.2540   10.7590 O.co2 106  GLU106     -0.2457
     98  N         36.0580   17.5490    8.6260 N.3   152  LYS152     -0.1245
     99  CA        34.6610   17.3510    8.2870 C.3   152  LYS152      0.1561
    100  C         34.4670   17.9180    6.8990 C.2   152  LYS152      0.2260
    101  O         33.8850   17.2660    6.0240 O.2   152  LYS152     -0.2867
    102  CB        33.7410   18.0700    9.2740 C.3   152  LYS152      0.0271
    103  CG        32.2870   18.1050    8.8280 C.3   152  LYS152      0.0035
    104  CD        31.3630   18.2210   10.0110 C.3   152  LYS152      0.0206
    105  CE        29.9100   18.1390    9.6000 C.3   152  LYS152      0.1093
    106  NZ        29.6400   16.9120    8.8330 N.3   152  LYS152     -0.1314
    107  N         32.1930   12.5580    0.2190 N.3   159  LYS159     -0.1245
    108  CA        31.0340   11.6780    0.2410 C.3   159  LYS159      0.1561
    109  C         30.3620   11.6290   -1.1220 C.2   159  LYS159      0.2260
    110  O         30.3130   12.6130   -1.8370 O.2   159  LYS159     -0.2867
    111  CB        30.0430   12.1020    1.3220 C.3   159  LYS159      0.0271
    112  CG        29.5960   13.5350    1.2610 C.3   159  LYS159      0.0035
    113  CD        28.3940   13.7500    2.1720 C.3   159  LYS159      0.0206
    114  CE        28.7020   13.4000    3.6340 C.3   159  LYS159      0.1093
    115  NZ        27.5420   13.6910    4.5400 N.3   159  LYS159     -0.1314
@<TRIPOS>BOND
     1    73    72    2
     2    72    71    1
     3    61    60    2
     4    60    59    1
     5    70    71    1
     6    71    74    1
     7    62    59    1
     8    62    63    1
     9    59    58    1
    10    74    75    1
    11    65    63   ar
    12    65    67   ar
    13    63    64   ar
    14    67    68   ar
    15    75    76    1
    16   110   109    2
    17    64    66   ar
    18    76    77    1
    19   109   108    1
    20    68    66   ar
    21    68    69    1
    22    39    38    1
    23    77    78    2
    24   107   108    1
    25   108   111    1
    26    79    78    1
    27    38    37   ar
    28    38    36   ar
    29    37    35   ar
    30    78    80    1
    31    36    34   ar
    32   112   111    1
    33   112   113    1
    34    35    33   ar
    35    34    33   ar
    36    33    32    1
    37   113   114    1
    38    32    29    1
    39    27    25   ar
    40    25    24    1
    41    25    26   ar
    42    24    21    1
    43    53    54    2
    44    53    52    1
    45   114   115    1
    46    29    28    1
    47    29    30    1
    48    28    22   am
    49    21    22    1
    50    21    20    1
    51    22    23    2
    52    56    55    1
    53    31    30    2
    54    52    55    1
    55    52    51    1
    56    30    40   am
    57    20    11   am
    58    55    57    1
    59    40    41    1
    60   101   100    2
    61    11    12    2
    62    11    10    1
    63     4     3    2
    64   100    99    1
    65    41    42    1
    66    41    44    1
    67    43    42    2
    68     7     6   ar
    69     8     6   ar
    70     6     5    1
    71     5     2    1
    72    10     9    1
    73    10    13    1
    74     3     9   am
    75     3     2    1
    76    99    98    1
    77    99   102    1
    78     2     1    1
    79    44    45    1
    80    13    14    1
    81   103   102    1
    82   103   104    1
    83   106   105    1
    84    46    45   ar
    85    46    48   ar
    86    45    47   ar
    87    88    86   ar
    88   105   104    1
    89    14    15   ar
    90    14    16   ar
    91    48    50   ar
    92    15    17   ar
    93    86    85    1
    94    86    87   ar
    95    47    49   ar
    96    97    95   ar
    97    16    18   ar
    98    84    83    2
    99    85    82    1
   100    17    19   ar
   101    50    49   ar
   102    94    95    1
   103    94    93    1
   104    95    96   ar
   105    83    82    1
   106    83    89   am
   107    18    19   ar
   108    82    81    1
   109    93    90    1
   110    90    89    1
   111    90    91    1
   112    91    92    2
