@<TRIPOS>MOLECULE
tmp/2agqC00.pdb
 162 158 0 0 0
SMALL
GASTEIGER

@<TRIPOS>ATOM
      1  N         33.1980   10.1130    9.3560 N.3     7  ASP7       -0.1225
      2  CA        31.7550   10.2950    9.1980 C.3     7  ASP7        0.1805
      3  C         31.2220    9.1040    8.3820 C.2     7  ASP7        0.2598
      4  O         31.5880    8.9430    7.2100 O.2     7  ASP7       -0.2718
      5  CB        31.4680   11.6030    8.4490 C.3     7  ASP7        0.1424
      6  CG        29.9840   11.9470    8.4160 C.2     7  ASP7        0.3668
      7  OD1       29.1430   11.0240    8.4100 O.co2   7  ASP7       -0.2456
      8  OD2       29.6500   13.1430    8.3820 O.co2   7  ASP7       -0.2456
      9  N         30.3740    8.2750    8.9920 N.am    8  PHE8       -0.1962
     10  CA        29.8260    7.0960    8.3070 C.3     8  PHE8        0.1771
     11  C         28.9040    7.4920    7.1530 C.2     8  PHE8        0.2620
     12  O         28.1140    8.4240    7.2730 O.2     8  PHE8       -0.2715
     13  CB        29.0620    6.1920    9.2970 C.3     8  PHE8        0.0574
     14  CG        29.8040    5.9210   10.5910 C.ar    8  PHE8       -0.0200
     15  CD1       31.1830    6.1030   10.6880 C.ar    8  PHE8       -0.0042
     16  CD2       29.1100    5.4970   11.7200 C.ar    8  PHE8       -0.0042
     17  CE1       31.8570    5.8690   11.8920 C.ar    8  PHE8       -0.0003
     18  CE2       29.7640    5.2590   12.9230 C.ar    8  PHE8       -0.0003
     19  CZ        31.1440    5.4480   13.0140 C.ar    8  PHE8       -0.0000
     20  N         29.0000    6.7860    6.0300 N.am    9  ASP9       -0.1957
     21  CA        28.1560    7.1040    4.8720 C.3     9  ASP9        0.1840
     22  C         26.6940    6.6740    5.0260 C.2     9  ASP9        0.2622
     23  O         26.4410    5.5800    5.5200 O.2     9  ASP9       -0.2715
     24  CB        28.7480    6.4640    3.6040 C.3     9  ASP9        0.1450
     25  CG        30.1780    6.8720    3.3620 C.2     9  ASP9        0.3671
     26  OD1       30.4710    8.0840    3.4370 O.co2   9  ASP9       -0.2456
     27  OD2       31.0050    5.9760    3.0910 O.co2   9  ASP9       -0.2456
     28  N         25.7530    7.5350    4.6150 N.am   10  TYR10      -0.1960
     29  CA        24.3160    7.2680    4.6670 C.3    10  TYR10       0.1771
     30  C         24.0100    6.1690    5.6950 C.2    10  TYR10       0.2620
     31  O         23.3350    5.1820    5.4440 O.2    10  TYR10      -0.2715
     32  CB        23.8130    6.8880    3.2650 C.3    10  TYR10       0.0574
     33  CG        24.4050    5.6420    2.6390 C.ar   10  TYR10      -0.0198
     34  CD1       23.6410    4.4740    2.5400 C.ar   10  TYR10      -0.0009
     35  CD2       25.7230    5.6120    2.1550 C.ar   10  TYR10      -0.0009
     36  CE1       24.1620    3.3010    1.9800 C.ar   10  TYR10       0.0417
     37  CE2       26.2580    4.4320    1.5930 C.ar   10  TYR10       0.0417
     38  CZ        25.4660    3.2860    1.5130 C.ar   10  TYR10       0.1957
     39  OH        25.9810    2.1310    0.9700 O.3    10  TYR10      -0.2866
     40  N         24.5090    6.4250    6.8920 N.am   11  PHE11      -0.1960
     41  CA        24.4520    5.4820    8.0010 C.3    11  PHE11       0.1771
     42  C         23.2720    4.5310    8.2390 C.2    11  PHE11       0.2619
     43  O         23.4440    3.3230    8.1070 O.2    11  PHE11      -0.2715
     44  CB        24.7860    6.1700    9.3360 C.3    11  PHE11       0.0574
     45  CG        25.2520    5.1850   10.3980 C.ar   11  PHE11      -0.0200
     46  CD1       26.1780    4.1830   10.0720 C.ar   11  PHE11      -0.0042
     47  CD2       24.7510    5.2230   11.6930 C.ar   11  PHE11      -0.0042
     48  CE1       26.5860    3.2370   11.0270 C.ar   11  PHE11      -0.0003
     49  CE2       25.1530    4.2840   12.6570 C.ar   11  PHE11      -0.0003
     50  CZ        26.0700    3.2890   12.3240 C.ar   11  PHE11      -0.0000
     51  N         22.1040    5.0360    8.6330 N.am   12  TYR12      -0.1974
     52  CA        20.9450    4.1650    8.9100 C.3    12  TYR12       0.1639
     53  C         20.6150    3.2740    7.7200 C.2    12  TYR12       0.2290
     54  O         20.2840    2.0970    7.8840 O.2    12  TYR12      -0.2864
     55  CB        19.7170    5.0040    9.2670 C.3    12  TYR12       0.0560
     56  CG        19.8020    5.7410   10.5920 C.ar   12  TYR12      -0.0198
     57  CD1       21.0130    5.8570   11.2890 C.ar   12  TYR12      -0.0009
     58  CD2       18.6690    6.3460   11.1370 C.ar   12  TYR12      -0.0009
     59  CE1       21.0830    6.5600   12.4960 C.ar   12  TYR12       0.0417
     60  CE2       18.7330    7.0430   12.3250 C.ar   12  TYR12       0.0417
     61  CZ        19.9270    7.1520   13.0000 C.ar   12  TYR12       0.1957
     62  OH        19.9300    7.8790   14.1710 O.3    12  TYR12      -0.2866
     63  N         10.6770    7.5820    9.8320 N.3    32  VAL32      -0.1245
     64  CA        10.2670    7.8000   11.2020 C.3    32  VAL32       0.1561
     65  C          8.7700    8.0430   11.1430 C.2    32  VAL32       0.2260
     66  O          8.3130    9.1520   10.8590 O.2    32  VAL32      -0.2867
     67  CB        10.9700    9.0240   11.8270 C.3    32  VAL32       0.0252
     68  CG1       10.6100    9.1140   13.2970 C.3    32  VAL32       0.0019
     69  CG2       12.4740    8.9260   11.6870 C.3    32  VAL32       0.0019
     70  N         11.3610   11.3900    6.8210 N.3    43  VAL43      -0.1231
     71  CA        12.5070   10.5690    6.4420 C.3    43  VAL43       0.1692
     72  C         13.7070   10.8440    7.3460 C.2    43  VAL43       0.2592
     73  O         14.0820   11.9930    7.5480 O.2    43  VAL43      -0.2718
     74  CB        12.8970   10.8390    4.9580 C.3    43  VAL43       0.0266
     75  CG1       14.1650   10.0900    4.5840 C.3    43  VAL43       0.0020
     76  CG2       11.7530   10.4040    4.0570 C.3    43  VAL43       0.0020
     77  N         14.2890    9.7870    7.9110 N.am   44  ALA44      -0.1966
     78  CA        15.4700    9.9310    8.7710 C.3    44  ALA44       0.1728
     79  C         16.6750   10.0870    7.8610 C.2    44  ALA44       0.2616
     80  O         17.5440   10.9160    8.1020 O.2    44  ALA44      -0.2715
     81  CB        15.6470    8.7120    9.6290 C.3    44  ALA44       0.0334
     82  N         16.7260    9.2510    6.8310 N.am   45  THR45      -0.1951
     83  CA        17.7890    9.2970    5.8370 C.3    45  THR45       0.1897
     84  C         17.4550    8.3060    4.7250 C.2    45  THR45       0.2313
     85  O         16.5180    7.5170    4.8410 O.2    45  THR45      -0.2863
     86  CB        19.1550    8.9100    6.4190 C.3    45  THR45       0.1794
     87  OG1       20.1860    9.3880    5.5430 O.3    45  THR45      -0.2208
     88  CG2       19.2760    7.3930    6.5410 C.3    45  THR45       0.0378
     89  N         22.1530    6.8090   -1.2100 N.3    48  TYR48      -0.1241
     90  CA        22.3710    7.6750   -2.3580 C.3    48  TYR48       0.1605
     91  C         21.5200    7.3700   -3.5980 C.2    48  TYR48       0.2264
     92  O         21.2060    8.2840   -4.3590 O.2    48  TYR48      -0.2867
     93  CB        23.8670    7.7210   -2.7020 C.3    48  TYR48       0.0534
     94  CG        24.6640    8.5400   -1.6940 C.ar   48  TYR48      -0.0201
     95  CD1       24.9840    8.0250   -0.4340 C.ar   48  TYR48      -0.0009
     96  CD2       25.0270    9.8600   -1.9760 C.ar   48  TYR48      -0.0009
     97  CE1       25.6380    8.8050    0.5150 C.ar   48  TYR48       0.0417
     98  CE2       25.6800   10.6520   -1.0310 C.ar   48  TYR48       0.0417
     99  CZ        25.9800   10.1190    0.2110 C.ar   48  TYR48       0.1957
    100  OH        26.6010   10.9130    1.1490 O.3    48  TYR48      -0.2866
    101  N         18.6920    9.4600   -2.8580 N.3    51  ARG51      -0.1245
    102  CA        19.0110   10.8890   -2.8440 C.3    51  ARG51       0.1563
    103  C         19.1570   11.5160   -4.2180 C.2    51  ARG51       0.2260
    104  O         18.8900   12.7080   -4.3870 O.2    51  ARG51      -0.2867
    105  CB        20.2910   11.1670   -2.0630 C.3    51  ARG51       0.0307
    106  CG        20.1430   10.9910   -0.5880 C.3    51  ARG51       0.0489
    107  CD        21.3890   11.4280    0.1300 C.3    51  ARG51       0.2205
    108  NE        21.4750   10.7220    1.3910 N.pl3  51  ARG51      -0.0865
    109  CZ        22.4690   10.8490    2.2540 C.cat  51  ARG51       0.5346
    110  NH1       23.4770   11.6710    1.9920 N.pl3  51  ARG51       0.1354
    111  NH2       22.4520   10.1410    3.3750 N.pl3  51  ARG51       0.1354
    112  N         16.8430   13.1280    4.2260 N.3    57  ALA57      -0.1231
    113  CA        16.4100   13.3760    5.5930 C.3    57  ALA57       0.1694
    114  C         15.5120   14.5990    5.6910 C.2    57  ALA57       0.2592
    115  O         15.7340   15.6100    5.0150 O.2    57  ALA57      -0.2718
    116  CB        17.6330   13.5480    6.5180 C.3    57  ALA57       0.0304
    117  N         14.4780   14.4920    6.5160 N.am   58  GLY58      -0.1957
    118  CA        13.5920   15.6180    6.7240 C.3    58  GLY58       0.1869
    119  C         12.3000   15.7550    5.9430 C.2    58  GLY58       0.2309
    120  O         11.3440   16.3480    6.4620 O.2    58  GLY58      -0.2863
    121  N         12.6960    3.1510   10.8930 N.3    76  MET76      -0.1245
    122  CA        13.9790    3.3690   11.5520 C.3    76  MET76       0.1570
    123  C         14.1550    2.3770   12.7170 C.2    76  MET76       0.2261
    124  O         13.2110    2.1320   13.4790 O.2    76  MET76      -0.2867
    125  CB        14.0390    4.8190   12.0720 C.3    76  MET76       0.0387
    126  CG        15.3180    5.2030   12.8060 C.3    76  MET76       0.0595
    127  SD        15.1370    6.7290   13.6930 S.3    76  MET76      -0.1393
    128  CE        15.8310    7.9240   12.6160 C.3    76  MET76       0.0692
    129  N         26.1030    9.8400   16.5810 N.3   104  ILE104     -0.1231
    130  CA        25.9540    8.4320   16.2780 C.3   104  ILE104      0.1692
    131  C         26.8770    7.9690   15.1450 C.2   104  ILE104      0.2592
    132  O         27.2540    6.7960   15.1010 O.2   104  ILE104     -0.2718
    133  CB        24.4900    8.0940   15.9200 C.3   104  ILE104      0.0266
    134  CG1       24.2660    6.5830   16.0830 C.3   104  ILE104      0.0019
    135  CG2       24.1650    8.5640   14.4920 C.3   104  ILE104      0.0020
    136  CD1       22.8180    6.1540   16.0060 C.3   104  ILE104      0.0001
    137  N         27.2700    8.8710   14.2460 N.am  105  ASP105     -0.1960
    138  CA        28.1340    8.4540   13.1390 C.3   105  ASP105      0.1840
    139  C         29.3660    9.3140   12.8600 C.2   105  ASP105      0.2621
    140  O         29.8870    9.2990   11.7380 O.2   105  ASP105     -0.2715
    141  CB        27.3030    8.3270   11.8550 C.3   105  ASP105      0.1450
    142  CG        27.0860    9.6650   11.1500 C.2   105  ASP105      0.3671
    143  OD1       27.0700   10.7090   11.8420 O.co2 105  ASP105     -0.2456
    144  OD2       26.9220    9.6620    9.9030 O.co2 105  ASP105     -0.2456
    145  N         29.8500   10.0350   13.8720 N.am  106  GLU106     -0.1977
    146  CA        31.0230   10.8960   13.6960 C.3   106  GLU106      0.1602
    147  C         31.9910   10.8420   14.8550 C.2   106  GLU106      0.2287
    148  O         31.5870   10.7680   16.0060 O.2   106  GLU106     -0.2864
    149  CB        30.6090   12.3550   13.5350 C.3   106  GLU106      0.0415
    150  CG        29.7260   12.6650   12.3620 C.3   106  GLU106      0.1163
    151  CD        29.2410   14.1020   12.4030 C.2   106  GLU106      0.3649
    152  OE1       28.6690   14.5000   13.4340 O.co2 106  GLU106     -0.2457
    153  OE2       29.4300   14.8350   11.4180 O.co2 106  GLU106     -0.2457
    154  N         32.6190   12.8860    0.5850 N.3   159  LYS159     -0.1245
    155  CA        31.6770   11.7800    0.6610 C.3   159  LYS159      0.1561
    156  C         30.8720   11.5580   -0.6130 C.2   159  LYS159      0.2260
    157  O         30.6970   12.4670   -1.4170 O.2   159  LYS159     -0.2867
    158  CB        30.7430   11.9330    1.8700 C.3   159  LYS159      0.0271
    159  CG        29.8180   13.1210    1.8540 C.3   159  LYS159      0.0035
    160  CD        28.9430   13.1230    3.1180 C.3   159  LYS159      0.0206
    161  CE        29.7630   13.1500    4.4010 C.3   159  LYS159      0.1093
    162  NZ        28.9190   13.4870    5.5960 N.3   159  LYS159     -0.1314
@<TRIPOS>BOND
     1   104   103    2
     2    92    91    2
     3   103   102    1
     4    91    90    1
     5   101   102    1
     6   102   105    1
     7    93    90    1
     8    93    94    1
     9    90    89    1
    10   105   106    1
    11    96    94   ar
    12    96    98   ar
    13    94    95   ar
    14   157   156    2
    15    98    99   ar
    16   156   155    1
    17   106   107    1
    18    95    97   ar
    19   107   108    1
    20    99    97   ar
    21    99   100    1
    22   154   155    1
    23   155   158    1
    24    39    38    1
    25   108   109    2
    26    38    37   ar
    27    38    36   ar
    28    37    35   ar
    29   159   158    1
    30   159   160    1
    31    36    34   ar
    32   110   109    1
    33    35    33   ar
    34   109   111    1
    35    34    33   ar
    36    33    32    1
    37    27    25   ar
    38   160   161    1
    39    32    29    1
    40    25    26   ar
    41    25    24    1
    42    24    21    1
    43    76    74    1
    44   112   113    1
    45   161   162    1
    46    75    74    1
    47    28    29    1
    48    28    22   am
    49    29    30    1
    50    84    85    2
    51    84    83    1
    52    21    22    1
    53    21    20    1
    54    74    71    1
    55   115   114    2
    56    22    23    2
    57    31    30    2
    58    87    86    1
    59   113   114    1
    60   113   116    1
    61   114   117   am
    62    30    40   am
    63    83    86    1
    64    83    82    1
    65   119   120    2
    66   119   118    1
    67    20    11   am
    68    86    88    1
    69    71    70    1
    70    71    72    1
    71   117   118    1
    72    82    79   am
    73    40    41    1
    74    11    12    2
    75    11    10    1
    76     4     3    2
    77    72    73    2
    78    72    77   am
    79    53    54    2
    80    53    52    1
    81    79    80    2
    82    79    78    1
    83    77    78    1
    84    41    42    1
    85    41    44    1
    86    43    42    2
    87    42    51   am
    88    10     9    1
    89    10    13    1
    90     3     9   am
    91     3     2    1
    92     8     6   ar
    93     7     6   ar
    94     6     5    1
    95     5     2    1
    96    51    52    1
    97    78    81    1
    98    52    55    1
    99     2     1    1
   100    55    56    1
   101    13    14    1
   102    44    45    1
   103    63    64    1
   104   144   142   ar
   105    46    45   ar
   106    46    48   ar
   107    45    47   ar
   108    14    15   ar
   109    14    16   ar
   110    56    58   ar
   111    56    57   ar
   112    15    17   ar
   113    66    65    2
   114   121   122    1
   115    48    50   ar
   116    58    60   ar
   117    65    64    1
   118   142   143   ar
   119   142   141    1
   120    64    67    1
   121    57    59   ar
   122   153   151   ar
   123   122   125    1
   124   122   123    1
   125    69    67    1
   126    47    49   ar
   127    16    18   ar
   128   140   139    2
   129    67    68    1
   130   141   138    1
   131    17    19   ar
   132   125   126    1
   133    50    49   ar
   134    60    61   ar
   135   150   151    1
   136   150   149    1
   137   151   152   ar
   138    59    61   ar
   139   128   127    1
   140   123   124    2
   141   126   127    1
   142   139   138    1
   143   139   145   am
   144    18    19   ar
   145    61    62    1
   146   138   137    1
   147   149   146    1
   148   146   145    1
   149   146   147    1
   150   137   131   am
   151   135   133    1
   152   147   148    2
   153   132   131    2
   154   131   130    1
   155   133   134    1
   156   133   130    1
   157   136   134    1
   158   130   129    1
