@<TRIPOS>MOLECULE
tmp/2agsA00.pdb
 178 169 0 0 0
SMALL
GASTEIGER

@<TRIPOS>ATOM
      1  N         28.8170    5.6090   12.4070 N.3    39  ARG39      -0.1231
      2  CA        29.0180    4.4950   11.5150 C.3    39  ARG39       0.1694
      3  C         28.6800    4.9270   10.1040 C.2    39  ARG39       0.2591
      4  O         28.1730    6.0150    9.8650 O.2    39  ARG39      -0.2718
      5  CB        28.1620    3.2840   11.9450 C.3    39  ARG39       0.0321
      6  CG        28.6570    2.5910   13.2170 C.3    39  ARG39       0.0489
      7  CD        28.3250    1.0950   13.2060 C.3    39  ARG39       0.2205
      8  NE        28.9080    0.5090   12.0130 N.pl3  39  ARG39      -0.0865
      9  CZ        28.4870   -0.5890   11.4180 C.cat  39  ARG39       0.5346
     10  NH1       29.0770   -0.9560   10.2980 N.pl3  39  ARG39       0.1354
     11  NH2       27.5230   -1.3420   11.9340 N.pl3  39  ARG39       0.1354
     12  N         29.0020    4.0530    9.1610 N.am   40  ILE40      -0.1980
     13  CA        28.5420    4.1690    7.7830 C.3    40  ILE40       0.1595
     14  C         29.0380    5.4460    7.1190 C.2    40  ILE40       0.2287
     15  O         28.2210    6.2880    6.6520 O.2    40  ILE40      -0.2864
     16  CB        26.9830    4.0860    7.6840 C.3    40  ILE40       0.0276
     17  CG1       26.3540    3.1080    8.7070 C.3    40  ILE40       0.0022
     18  CG2       26.5660    3.7420    6.2340 C.3    40  ILE40       0.0022
     19  CD1       26.8390    1.7330    8.6770 C.3    40  ILE40       0.0001
     20  N         24.6320    7.1740   15.6000 N.3    57  ARG57      -0.1245
     21  CA        23.8760    6.1710   16.3250 C.3    57  ARG57       0.1563
     22  C         23.9700    6.6550   17.7560 C.2    57  ARG57       0.2260
     23  O         24.9430    6.3870   18.4780 O.2    57  ARG57      -0.2867
     24  CB        24.4350    4.7570   16.1380 C.3    57  ARG57       0.0307
     25  CG        24.4990    4.3820   14.6660 C.3    57  ARG57       0.0489
     26  CD        24.6280    2.9120   14.4850 C.3    57  ARG57       0.2205
     27  NE        24.4310    2.5620   13.0730 N.pl3  57  ARG57      -0.0865
     28  CZ        24.4500    1.3150   12.6160 C.cat  57  ARG57       0.5346
     29  NH1       24.6790    0.3000   13.4240 N.pl3  57  ARG57       0.1354
     30  NH2       24.2630    1.0860   11.3280 N.pl3  57  ARG57       0.1354
     31  N         22.0640   -1.6780   14.9200 N.3    63  ASP63      -0.1239
     32  CA        21.4890   -1.1990   13.6730 C.3    63  ASP63       0.1674
     33  C         20.0970   -0.6360   13.8890 C.2    63  ASP63       0.2266
     34  O         19.7270    0.3870   13.3360 O.2    63  ASP63      -0.2867
     35  CB        21.4620   -2.3210   12.6230 C.3    63  ASP63       0.1410
     36  CG        22.8560   -2.8870   12.2970 C.2    63  ASP63       0.3668
     37  OD1       22.8940   -4.0340   11.7520 O.co2  63  ASP63      -0.2456
     38  OD2       23.9220   -2.2560   12.6070 O.co2  63  ASP63      -0.2456
     39  N         18.9830    5.7320    8.0350 N.3    99  MET99      -0.1230
     40  CA        20.0950    4.7790    8.0060 C.3    99  MET99       0.1702
     41  C         20.7500    4.6060    6.6320 C.2    99  MET99       0.2592
     42  O         20.0930    4.7940    5.5950 O.2    99  MET99      -0.2718
     43  CB        19.6020    3.4170    8.5460 C.3    99  MET99       0.0401
     44  CG        18.3870    2.7820    7.8630 C.3    99  MET99       0.0596
     45  SD        18.7940    1.9150    6.3380 S.3    99  MET99      -0.1393
     46  CE        19.4130    0.3670    6.9800 C.3    99  MET99       0.0692
     47  N         22.0430    4.2350    6.6290 N.am  100  ASP100     -0.1974
     48  CA        22.6910    3.7100    5.4560 C.3   100  ASP100      0.1709
     49  C         22.6850    4.6540    4.2850 C.2   100  ASP100      0.2293
     50  O         22.3020    4.2750    3.1760 O.2   100  ASP100     -0.2864
     51  CB        22.1770    2.3220    5.0800 C.3   100  ASP100      0.1436
     52  CG        22.6050    1.2570    6.0870 C.2   100  ASP100      0.3671
     53  OD1       23.2520    1.5850    7.1230 O.co2 100  ASP100     -0.2456
     54  OD2       22.2540    0.0780    5.8310 O.co2 100  ASP100     -0.2456
     55  N         15.9810   -6.2070   11.6380 N.3   123  SER123     -0.1202
     56  CA        16.5730   -5.5910   10.4860 C.3   123  SER123      0.2020
     57  C         15.6610   -5.6650    9.2820 C.2   123  SER123      0.2619
     58  O         14.7630   -6.5050    9.1720 O.2   123  SER123     -0.2717
     59  CB        17.9630   -6.1490   10.2480 C.3   123  SER123      0.2103
     60  OG        18.8370   -5.6470   11.2840 O.3   123  SER123     -0.2182
     61  N         15.9250   -4.7430    8.3850 N.am  124  TRP124     -0.1961
     62  CA        15.0160   -4.4570    7.2870 C.3   124  TRP124      0.1771
     63  C         14.7210   -5.6550    6.4150 C.2   124  TRP124      0.2620
     64  O         13.5780   -5.8510    5.9310 O.2   124  TRP124     -0.2715
     65  CB        15.5850   -3.2860    6.4980 C.3   124  TRP124      0.0590
     66  CG        16.7850   -3.6010    5.6620 C.ar  124  TRP124      0.0006
     67  CD1       18.1070   -3.7640    6.0730 C.ar  124  TRP124      0.0946
     68  CD2       16.7750   -3.7300    4.2570 C.ar  124  TRP124      0.0152
     69  NE1       18.9050   -4.0280    4.9590 N.ar  124  TRP124     -0.2442
     70  CE2       18.1040   -4.0100    3.8360 C.ar  124  TRP124      0.0810
     71  CE3       15.7690   -3.6690    3.3010 C.ar  124  TRP124      0.0012
     72  CZ2       18.4160   -4.2380    2.5040 C.ar  124  TRP124      0.0191
     73  CZ3       16.0980   -3.8720    1.9800 C.ar  124  TRP124      0.0001
     74  CH2       17.4090   -4.1310    1.5980 C.ar  124  TRP124      0.0015
     75  N         15.7160   -6.5210    6.2420 N.am  125  THR125     -0.1951
     76  CA        15.5130   -7.6620    5.3980 C.3   125  THR125      0.1897
     77  C         14.5540   -8.6450    6.0420 C.2   125  THR125      0.2313
     78  O         13.9500   -9.4250    5.3390 O.2   125  THR125     -0.2863
     79  CB        16.8400   -8.3750    5.1300 C.3   125  THR125      0.1794
     80  OG1       17.3960   -8.8110    6.3630 O.3   125  THR125     -0.2208
     81  CG2       17.8360   -7.4230    4.5270 C.3   125  THR125      0.0378
     82  N         16.7620   -0.0690   -0.0960 N.3   180  ILE180     -0.1245
     83  CA        17.5330    1.0340    0.3460 C.3   180  ILE180      0.1561
     84  C         18.7050    1.2080   -0.6460 C.2   180  ILE180      0.2260
     85  O         18.8770    0.3900   -1.5760 O.2   180  ILE180     -0.2867
     86  CB        18.0330    0.8380    1.7260 C.3   180  ILE180      0.0252
     87  CG1       18.8700   -0.4000    1.8500 C.3   180  ILE180      0.0019
     88  CG2       16.8550    0.8770    2.7980 C.3   180  ILE180      0.0019
     89  CD1       19.5820   -0.4800    3.2070 C.3   180  ILE180      0.0001
     90  N         19.6240   -1.9250   -2.9340 N.3   199  GLN199     -0.1245
     91  CA        19.4520   -3.2050   -2.3520 C.3   199  GLN199      0.1566
     92  C         17.9670   -3.4170   -2.2290 C.2   199  GLN199      0.2260
     93  O         17.2770   -2.5720   -1.6500 O.2   199  GLN199     -0.2867
     94  CB        20.0340   -3.1920   -0.9340 C.3   199  GLN199      0.0367
     95  CG        21.3740   -2.6360   -0.7650 C.3   199  GLN199      0.0905
     96  CD        21.8330   -2.7010    0.6560 C.2   199  GLN199      0.2608
     97  OE1       22.0270   -1.6610    1.3510 O.2   199  GLN199     -0.2717
     98  NE2       22.0240   -3.9170    1.1170 N.am  199  GLN199     -0.0878
     99  N         24.2540   -7.6780   -1.7940 N.3   233  SER233     -0.1202
    100  CA        23.7840   -6.6030   -0.9800 C.3   233  SER233      0.2020
    101  C         24.7780   -5.4370   -1.1360 C.2   233  SER233      0.2618
    102  O         25.7420   -5.5590   -1.8600 O.2   233  SER233     -0.2717
    103  CB        23.6650   -7.0110    0.4880 C.3   233  SER233      0.2103
    104  OG        24.9270   -7.3800    1.0200 O.3   233  SER233     -0.2182
    105  N         24.4990   -4.3170   -0.4800 N.am  234  GLU234     -0.1979
    106  CA        25.3760   -3.1230   -0.4320 C.3   234  GLU234      0.1602
    107  C         26.2010   -2.9220   -1.6890 C.2   234  GLU234      0.2287
    108  O         27.4420   -2.8690   -1.6860 O.2   234  GLU234     -0.2864
    109  CB        26.2240   -3.0790    0.8400 C.3   234  GLU234      0.0415
    110  CG        25.3630   -2.8010    2.0360 C.3   234  GLU234      0.1163
    111  CD        26.0750   -2.7920    3.3560 C.2   234  GLU234      0.3649
    112  OE1       27.1820   -3.3230    3.4430 O.co2 234  GLU234     -0.2457
    113  OE2       25.4970   -2.2430    4.3280 O.co2 234  GLU234     -0.2457
    114  N         28.4890   -6.4940   -2.1020 N.3   249  ARG249     -0.1245
    115  CA        28.6820   -7.2380   -0.9050 C.3   249  ARG249      0.1563
    116  C         27.9760   -8.5760   -1.0410 C.2   249  ARG249      0.2260
    117  O         26.8770   -8.6490   -1.5800 O.2   249  ARG249     -0.2867
    118  CB        28.1080   -6.4780    0.2810 C.3   249  ARG249      0.0307
    119  CG        28.2700   -7.1470    1.5800 C.3   249  ARG249      0.0489
    120  CD        27.8200   -6.3070    2.7450 C.3   249  ARG249      0.2205
    121  NE        27.6570   -7.1610    3.9180 N.pl3 249  ARG249     -0.0865
    122  CZ        27.3950   -6.7260    5.1500 C.cat 249  ARG249      0.5346
    123  NH1       27.3930   -5.4430    5.3970 N.pl3 249  ARG249      0.1354
    124  NH2       27.2160   -7.5910    6.1450 N.pl3 249  ARG249      0.1354
    125  N         27.4910  -11.6380    1.6420 N.3   251  ASP251     -0.1239
    126  CA        27.7740  -12.3400    2.8960 C.3   251  ASP251      0.1674
    127  C         27.9740  -13.8110    2.6140 C.2   251  ASP251      0.2266
    128  O         27.1510  -14.4580    1.9260 O.2   251  ASP251     -0.2867
    129  CB        26.6050  -12.1490    3.8430 C.3   251  ASP251      0.1410
    130  CG        26.4590  -10.7120    4.2880 C.2   251  ASP251      0.3668
    131  OD1       25.2950  -10.2320    4.3650 O.co2 251  ASP251     -0.2456
    132  OD2       27.4970  -10.0670    4.5620 O.co2 251  ASP251     -0.2456
    133  N         30.4740  -13.1060    7.3010 N.3   287  GLN287     -0.1245
    134  CA        29.7210  -11.8920    6.9840 C.3   287  GLN287      0.1566
    135  C         30.6980  -10.9820    6.1740 C.2   287  GLN287      0.2260
    136  O         31.8590  -10.8340    6.5330 O.2   287  GLN287     -0.2867
    137  CB        29.3980  -11.2700    8.3310 C.3   287  GLN287      0.0367
    138  CG        28.6040  -10.0910    8.5350 C.3   287  GLN287      0.0905
    139  CD        28.5870   -9.8240   10.1100 C.2   287  GLN287      0.2608
    140  OE1       28.1680   -8.7830   10.5460 O.2   287  GLN287     -0.2717
    141  NE2       29.1010  -10.8110   10.9050 N.am  287  GLN287     -0.0878
    142  N         32.1390   -9.5440   12.3250 N.3   316  TRP316     -0.1241
    143  CA        32.0760   -8.1590   11.9660 C.3   316  TRP316      0.1605
    144  C         33.3170   -7.4010   12.3880 C.2   316  TRP316      0.2264
    145  O         33.2990   -6.1580   12.3430 O.2   316  TRP316     -0.2867
    146  CB        30.8040   -7.4930   12.5660 C.3   316  TRP316      0.0550
    147  CG        30.8650   -7.4640   14.0800 C.ar  316  TRP316      0.0003
    148  CD1       31.2380   -6.4160   14.8460 C.ar  316  TRP316      0.0946
    149  CD2       30.5390   -8.5350   15.0010 C.ar  316  TRP316      0.0152
    150  NE1       31.1780   -6.7520   16.1790 N.ar  316  TRP316     -0.2442
    151  CE2       30.8010   -8.0560   16.2990 C.ar  316  TRP316      0.0810
    152  CE3       30.1070   -9.8610   14.8570 C.ar  316  TRP316      0.0012
    153  CZ2       30.6110   -8.8290   17.4370 C.ar  316  TRP316      0.0191
    154  CZ3       29.9300  -10.6290   16.0250 C.ar  316  TRP316      0.0001
    155  CH2       30.1810  -10.1140   17.2700 C.ar  316  TRP316      0.0015
    156  N         36.3580   -7.1300   11.0560 N.3   318  ARG318     -0.1245
    157  CA        36.7430   -6.3000    9.8940 C.3   318  ARG318      0.1563
    158  C         38.0570   -5.5620   10.1120 C.2   318  ARG318      0.2260
    159  O         38.2510   -4.4260    9.7060 O.2   318  ARG318     -0.2867
    160  CB        35.6040   -5.3630    9.5630 C.3   318  ARG318      0.0307
    161  CG        34.4230   -6.0900    9.0240 C.3   318  ARG318      0.0489
    162  CD        33.1670   -5.3240    9.2390 C.3   318  ARG318      0.2205
    163  NE        32.0270   -6.0710    8.6840 N.pl3 318  ARG318     -0.0865
    164  CZ        30.7650   -5.7170    8.8690 C.cat 318  ARG318      0.5346
    165  NH1       30.4690   -4.6400    9.5620 N.pl3 318  ARG318      0.1354
    166  NH2       29.8010   -6.4170    8.3130 N.pl3 318  ARG318      0.1354
    167  N         33.2270   -0.2800    7.6860 N.3   346  TYR346     -0.1241
    168  CA        32.7800    0.3610    6.4650 C.3   346  TYR346      0.1605
    169  C         33.7200    1.5420    6.2130 C.2   346  TYR346      0.2264
    170  O         34.3840    2.0740    7.1290 O.2   346  TYR346     -0.2867
    171  CB        31.3580    0.8630    6.6150 C.3   346  TYR346      0.0534
    172  CG        30.2110   -0.1330    6.6100 C.ar  346  TYR346     -0.0201
    173  CD1       30.3510   -1.4470    7.0270 C.ar  346  TYR346     -0.0009
    174  CD2       28.9450    0.2670    6.1860 C.ar  346  TYR346     -0.0009
    175  CE1       29.2160   -2.3520    7.0340 C.ar  346  TYR346      0.0417
    176  CE2       27.8460   -0.6050    6.2050 C.ar  346  TYR346      0.0417
    177  CZ        27.9730   -1.9150    6.6370 C.ar  346  TYR346      0.1957
    178  OH        26.8750   -2.7950    6.6980 O.3   346  TYR346     -0.2866
@<TRIPOS>BOND
     1    90    91    1
     2    91    92    1
     3    91    94    1
     4    92    93    2
     5   114   115    1
     6   102   101    2
     7    99   100    1
     8   107   108    2
     9   107   106    1
    10   117   116    2
    11    85    84    2
    12   101   100    1
    13   101   105   am
    14   116   115    1
    15   100   103    1
    16    94    95    1
    17   115   118    1
    18    95    96    1
    19    84    83    1
    20   105   106    1
    21   106   109    1
    22    82    83    1
    23   118   119    1
    24    83    86    1
    25   103   104    1
    26    96    98   am
    27    96    97    2
    28   109   110    1
    29   119   120    1
    30    74    73   ar
    31    74    72   ar
    32   125   126    1
    33    86    87    1
    34    86    88    1
    35    87    89    1
    36   128   127    2
    37    73    71   ar
    38   110   111    1
    39    72    70   ar
    40   127   126    1
    41   120   121    1
    42   126   129    1
    43    50    49    2
    44    71    68   ar
    45   111   112   ar
    46   111   113   ar
    47    70    68   ar
    48    70    69   ar
    49   129   130    1
    50   121   122    2
    51    68    66   ar
    52    49    48    1
    53   130   131   ar
    54   130   132   ar
    55    81    79    1
    56    69    67   ar
    57    51    48    1
    58    51    52    1
    59    79    76    1
    60    79    80    1
    61   122   123    1
    62   122   124    1
    63    78    77    2
    64    76    77    1
    65    76    75    1
    66    48    47    1
    67    42    41    2
    68    66    67   ar
    69    66    65    1
    70    54    52   ar
    71    64    63    2
    72    52    53   ar
    73   135   136    2
    74   135   134    1
    75   174   176   ar
    76   174   172   ar
    77   176   177   ar
    78   169   168    1
    79   169   170    2
    80    18    16    1
    81    75    63   am
    82    45    46    1
    83    45    44    1
    84    63    62    1
    85   168   171    1
    86   168   167    1
    87    65    62    1
    88   172   171    1
    89   172   173   ar
    90    47    41   am
    91    41    40    1
    92   177   178    1
    93   177   175   ar
    94    15    14    2
    95   134   133    1
    96   134   137    1
    97   173   175   ar
    98    14    13    1
    99    62    61    1
   100    16    13    1
   101    16    17    1
   102    13    12    1
   103    44    43    1
   104    40    39    1
   105    40    43    1
   106   166   164    1
   107   137   138    1
   108    61    57   am
   109   138   139    1
   110    19    17    1
   111   163   164    2
   112   163   162    1
   113   164   165    1
   114   161   162    1
   115   161   160    1
   116    12     3   am
   117    58    57    2
   118    57    56    1
   119   160   157    1
   120   159   158    2
   121     4     3    2
   122   157   158    1
   123   157   156    1
   124     3     2    1
   125   139   140    2
   126   139   141   am
   127    59    56    1
   128    59    60    1
   129    10     9    1
   130    56    55    1
   131    30    28    1
   132     9    11    1
   133     9     8    2
   134     2     5    1
   135     2     1    1
   136    37    36   ar
   137     5     6    1
   138   143   142    1
   139   143   144    1
   140   143   146    1
   141     8     7    1
   142    36    38   ar
   143    36    35    1
   144   145   144    2
   145   146   147    1
   146    28    27    2
   147    28    29    1
   148    35    32    1
   149    27    26    1
   150     7     6    1
   151    34    33    2
   152    32    33    1
   153    32    31    1
   154   147   148   ar
   155   147   149   ar
   156    26    25    1
   157    25    24    1
   158   148   150   ar
   159   152   149   ar
   160   152   154   ar
   161   149   151   ar
   162    20    21    1
   163   154   155   ar
   164    24    21    1
   165   150   151   ar
   166   151   153   ar
   167    21    22    1
   168   155   153   ar
   169    22    23    2
