@<TRIPOS>MOLECULE
tmp/2agvB01.pdb
 133 126 0 0 0
SMALL
GASTEIGER

@<TRIPOS>ATOM
      1  N         22.7330  -52.5500  -14.4180 N.3    59  ASP59      -0.1239
      2  CA        24.1210  -52.9800  -14.2590 C.3    59  ASP59       0.1674
      3  C         24.2960  -53.9530  -13.0940 C.2    59  ASP59       0.2266
      4  O         23.6010  -53.8710  -12.0830 O.2    59  ASP59      -0.2867
      5  CB        25.0330  -51.7550  -14.0710 C.3    59  ASP59       0.1410
      6  CG        26.5020  -52.1310  -13.9070 C.2    59  ASP59       0.3668
      7  OD1       27.0630  -52.8130  -14.7930 O.co2  59  ASP59      -0.2456
      8  OD2       27.1030  -51.7400  -12.8870 O.co2  59  ASP59      -0.2456
      9  N         26.9340  -54.2600  -11.0550 N.3    61  LEU61      -0.1231
     10  CA        27.5260  -53.6430   -9.8820 C.3    61  LEU61       0.1693
     11  C         26.5910  -52.6740   -9.1620 C.2    61  LEU61       0.2591
     12  O         26.6390  -52.5720   -7.9370 O.2    61  LEU61      -0.2718
     13  CB        28.8430  -52.9600  -10.2680 C.3    61  LEU61       0.0284
     14  CG        29.8150  -53.9290  -10.9600 C.3    61  LEU61       0.0019
     15  CD1       31.1250  -53.2290  -11.2740 C.3    61  LEU61       0.0001
     16  CD2       30.0440  -55.1560  -10.0710 C.3    61  LEU61       0.0001
     17  N         25.7340  -51.9710   -9.9010 N.am   62  VAL62      -0.1980
     18  CA        24.8090  -51.0450   -9.2540 C.3    62  VAL62       0.1595
     19  C         23.7540  -51.8320   -8.4830 C.2    62  VAL62       0.2287
     20  O         23.1310  -51.3050   -7.5580 O.2    62  VAL62      -0.2864
     21  CB        24.0940  -50.1090  -10.2630 C.3    62  VAL62       0.0276
     22  CG1       25.1160  -49.3430  -11.0780 C.3    62  VAL62       0.0022
     23  CG2       23.1710  -50.9060  -11.1610 C.3    62  VAL62       0.0022
     24  N         25.5150  -53.0470   -5.1820 N.3    65  LEU65      -0.1245
     25  CA        25.5310  -51.9090   -4.2690 C.3    65  LEU65       0.1561
     26  C         24.1330  -51.6140   -3.7460 C.2    65  LEU65       0.2260
     27  O         23.9380  -51.4320   -2.5470 O.2    65  LEU65      -0.2867
     28  CB        26.0870  -50.6690   -4.9570 C.3    65  LEU65       0.0270
     29  CG        27.6060  -50.6390   -5.1080 C.3    65  LEU65       0.0019
     30  CD1       28.0290  -49.2400   -5.5180 C.3    65  LEU65       0.0001
     31  CD2       28.2710  -51.0210   -3.7850 C.3    65  LEU65       0.0001
     32  N         25.4280  -42.3390   -4.2720 N.3    97  ILE97      -0.1231
     33  CA        26.2830  -42.6350   -5.4130 C.3    97  ILE97       0.1692
     34  C         25.4440  -43.2430   -6.5310 C.2    97  ILE97       0.2591
     35  O         25.6420  -42.9270   -7.7080 O.2    97  ILE97      -0.2718
     36  CB        27.3930  -43.6300   -5.0480 C.3    97  ILE97       0.0266
     37  CG1       28.3630  -42.9910   -4.0540 C.3    97  ILE97       0.0019
     38  CG2       28.1210  -44.0680   -6.3020 C.3    97  ILE97       0.0020
     39  CD1       29.4150  -43.9580   -3.5380 C.3    97  ILE97       0.0001
     40  N         24.5160  -44.1230   -6.1630 N.am   98  LEU98      -0.1980
     41  CA        23.6480  -44.7570   -7.1490 C.3    98  LEU98       0.1596
     42  C         22.7760  -43.6840   -7.7900 C.2    98  LEU98       0.2287
     43  O         22.5260  -43.7130   -9.0020 O.2    98  LEU98      -0.2864
     44  CB        22.7670  -45.8200   -6.4940 C.3    98  LEU98       0.0297
     45  CG        23.4900  -47.0300   -5.9050 C.3    98  LEU98       0.0022
     46  CD1       22.5090  -47.9270   -5.1550 C.3    98  LEU98       0.0001
     47  CD2       24.1560  -47.7890   -7.0260 C.3    98  LEU98       0.0001
     48  N         24.6880  -41.8010  -10.0750 N.3   101  ASN101     -0.1240
     49  CA        24.8340  -42.6910  -11.2200 C.3   101  ASN101      0.1653
     50  C         23.6440  -42.5360  -12.1650 C.2   101  ASN101      0.2266
     51  O         23.8030  -42.2450  -13.3550 O.2   101  ASN101     -0.2867
     52  CB        24.9280  -44.1410  -10.7300 C.3   101  ASN101      0.1155
     53  CG        25.1870  -45.1260  -11.8550 C.2   101  ASN101      0.2627
     54  OD1       26.1470  -44.9780  -12.6180 O.2   101  ASN101     -0.2716
     55  ND2       24.3330  -46.1460  -11.9580 N.am  101  ASN101     -0.0877
     56  N         35.4840  -54.2400  -19.4380 N.3   253  LEU253     -0.1231
     57  CA        34.9070  -53.6700  -18.2290 C.3   253  LEU253      0.1693
     58  C         33.6580  -54.4070  -17.7650 C.2   253  LEU253      0.2592
     59  O         33.4630  -54.5930  -16.5650 O.2   253  LEU253     -0.2718
     60  CB        34.5990  -52.1940  -18.4660 C.3   253  LEU253      0.0284
     61  CG        35.1610  -51.1640  -17.4830 C.3   253  LEU253      0.0019
     62  CD1       36.5780  -51.5340  -17.0570 C.3   253  LEU253      0.0001
     63  CD2       35.1270  -49.7860  -18.1420 C.3   253  LEU253      0.0001
     64  N         32.8110  -54.8180  -18.7110 N.am  254  ASP254     -0.1974
     65  CA        31.5910  -55.5550  -18.3730 C.3   254  ASP254      0.1709
     66  C         31.9360  -56.9610  -17.8960 C.2   254  ASP254      0.2293
     67  O         31.2530  -57.5080  -17.0340 O.2   254  ASP254     -0.2864
     68  CB        30.6320  -55.6740  -19.5740 C.3   254  ASP254      0.1436
     69  CG        29.9480  -54.3570  -19.9220 C.2   254  ASP254      0.3671
     70  OD1       29.6010  -53.5850  -18.9990 O.co2 254  ASP254     -0.2456
     71  OD2       29.7340  -54.1010  -21.1260 O.co2 254  ASP254     -0.2456
     72  N         34.6330  -57.7390  -16.3190 N.3   256  PHE256     -0.1227
     73  CA        35.1910  -57.5400  -14.9800 C.3   256  PHE256      0.1736
     74  C         34.0580  -57.4570  -13.9500 C.2   256  PHE256      0.2596
     75  O         34.2150  -57.8730  -12.7970 O.2   256  PHE256     -0.2718
     76  CB        36.0150  -56.2520  -14.9300 C.3   256  PHE256      0.0547
     77  CG        36.3250  -55.7840  -13.5340 C.ar  256  PHE256     -0.0202
     78  CD1       37.1920  -56.5080  -12.7180 C.ar  256  PHE256     -0.0042
     79  CD2       35.7510  -54.6140  -13.0330 C.ar  256  PHE256     -0.0042
     80  CE1       37.4860  -56.0780  -11.4200 C.ar  256  PHE256     -0.0003
     81  CE2       36.0420  -54.1720  -11.7330 C.ar  256  PHE256     -0.0003
     82  CZ        36.9110  -54.9060  -10.9270 C.ar  256  PHE256     -0.0000
     83  N         32.9240  -56.9080  -14.3720 N.am  257  GLY257     -0.1957
     84  CA        31.7870  -56.8000  -13.4810 C.3   257  GLY257      0.1869
     85  C         31.2440  -58.1810  -13.1530 C.2   257  GLY257      0.2309
     86  O         31.1300  -58.5360  -11.9800 O.2   257  GLY257     -0.2863
     87  N         34.1840  -53.0210   -5.2450 N.3   307  ILE307     -0.1231
     88  CA        33.7900  -52.0860   -6.2870 C.3   307  ILE307      0.1678
     89  C         34.6240  -50.8230   -6.3560 C.2   307  ILE307      0.2434
     90  O         34.7290  -50.0850   -5.3820 O.2   307  ILE307     -0.2733
     91  CB        32.3180  -51.6070   -6.1240 C.3   307  ILE307      0.0265
     92  CG1       31.3450  -52.7960   -6.1340 C.3   307  ILE307      0.0019
     93  CG2       31.9780  -50.6110   -7.2280 C.3   307  ILE307      0.0020
     94  CD1       31.3130  -53.5520   -7.4270 C.3   307  ILE307      0.0001
     95  N         35.2590  -50.5680   -7.5030 N.am  308  PRO308     -0.2718
     96  CA        36.0360  -49.3300   -7.5650 C.3   308  PRO308      0.1535
     97  C         35.0010  -48.2330   -7.8460 C.2   308  PRO308      0.2598
     98  O         34.7400  -47.8900   -8.9950 O.2   308  PRO308     -0.2715
     99  CB        36.9800  -49.5740   -8.7380 C.3   308  PRO308      0.0310
    100  CG        36.2260  -50.5160   -9.5960 C.3   308  PRO308      0.0237
    101  CD        35.6060  -51.4650   -8.6170 C.3   308  PRO308      0.0939
    102  N         34.3890  -47.7200   -6.7850 N.am  309  GLU309     -0.1978
    103  CA        33.3520  -46.6980   -6.8920 C.3   309  GLU309      0.1602
    104  C         33.6870  -45.4680   -7.7260 C.2   309  GLU309      0.2287
    105  O         32.8280  -44.9350   -8.4210 O.2   309  GLU309     -0.2864
    106  CB        32.9220  -46.2260   -5.4980 C.3   309  GLU309      0.0415
    107  CG        32.1940  -47.2590   -4.6420 C.3   309  GLU309      0.1163
    108  CD        33.1360  -48.2320   -3.9560 C.2   309  GLU309      0.3649
    109  OE1       34.2590  -47.8110   -3.5990 O.co2 309  GLU309     -0.2457
    110  OE2       32.7500  -49.4090   -3.7500 O.co2 309  GLU309     -0.2457
    111  N         35.9580  -45.2740  -10.2480 N.3   311  LEU311     -0.1231
    112  CA        36.5400  -45.5660  -11.5580 C.3   311  LEU311      0.1678
    113  C         35.7750  -44.9340  -12.7100 C.2   311  LEU311      0.2434
    114  O         36.3860  -44.4110  -13.6580 O.2   311  LEU311     -0.2733
    115  CB        36.6390  -47.0760  -11.7880 C.3   311  LEU311      0.0284
    116  CG        37.1850  -47.5040  -13.1580 C.3   311  LEU311      0.0019
    117  CD1       38.5140  -46.7960  -13.4440 C.3   311  LEU311      0.0001
    118  CD2       37.3760  -49.0110  -13.1860 C.3   311  LEU311      0.0001
    119  N         34.4280  -44.9830  -12.6580 N.am  312  PRO312     -0.2729
    120  CA        33.6080  -44.3970  -13.7260 C.3   312  PRO312      0.1401
    121  C         33.8030  -42.8840  -13.8880 C.2   312  PRO312      0.2269
    122  O         33.6840  -42.3460  -15.0020 O.2   312  PRO312     -0.2865
    123  CB        32.1780  -44.7730  -13.3200 C.3   312  PRO312      0.0296
    124  CG        32.2710  -44.9700  -11.8320 C.3   312  PRO312      0.0237
    125  CD        33.5870  -45.6800  -11.6700 C.3   312  PRO312      0.0939
    126  N         37.6140  -42.2390  -15.3040 N.3   315  ILE315     -0.1245
    127  CA        37.6000  -42.5330  -16.7300 C.3   315  ILE315      0.1561
    128  C         36.9410  -41.3700  -17.4600 C.2   315  ILE315      0.2260
    129  O         37.4660  -40.8680  -18.4480 O.2   315  ILE315     -0.2867
    130  CB        36.7870  -43.8030  -17.0250 C.3   315  ILE315      0.0252
    131  CG1       37.5950  -45.0420  -16.6270 C.3   315  ILE315      0.0019
    132  CG2       36.3860  -43.8240  -18.4800 C.3   315  ILE315      0.0019
    133  CD1       36.8650  -46.3520  -16.8310 C.3   315  ILE315      0.0001
@<TRIPOS>BOND
     1    71    69   ar
     2    69    68    1
     3    69    70   ar
     4    68    65    1
     5    56    57    1
     6    64    65    1
     7    64    58   am
     8   132   130    1
     9    60    57    1
    10    60    61    1
    11   129   128    2
    12    65    66    1
    13    57    58    1
    14    63    61    1
    15    66    67    2
    16    58    59    2
    17    61    62    1
    18   128   127    1
    19   130   127    1
    20   130   131    1
    21   133   131    1
    22   127   126    1
    23    72    73    1
    24   122   121    2
    25    73    76    1
    26    73    74    1
    27    76    77    1
    28     7     6   ar
    29     1     2    1
    30    83    74   am
    31    83    84    1
    32     2     5    1
    33     2     3    1
    34     5     6    1
    35    74    75    2
    36     6     8   ar
    37   121   120    1
    38   120   123    1
    39   120   119    1
    40   114   113    2
    41    77    79   ar
    42    77    78   ar
    43    84    85    1
    44   117   116    1
    45    51    50    2
    46   123   124    1
    47   118   116    1
    48   116   115    1
    49    85    86    2
    50     3     4    2
    51    79    81   ar
    52    78    80   ar
    53   113   119   am
    54   113   112    1
    55   119   125    1
    56    54    53    2
    57    50    49    1
    58    55    53   am
    59    53    52    1
    60   124   125    1
    61   115   112    1
    62    81    82   ar
    63   112   111    1
    64    80    82   ar
    65    15    14    1
    66    49    52    1
    67    49    48    1
    68    23    21    1
    69    22    21    1
    70     9    10    1
    71    14    13    1
    72    14    16    1
    73    13    10    1
    74    21    18    1
    75    17    18    1
    76    17    11   am
    77    10    11    1
    78   100    99    1
    79   100   101    1
    80    18    19    1
    81    11    12    2
    82    43    42    2
    83    98    97    2
    84    99    96    1
    85   101    95    1
    86    19    20    2
    87   105   104    2
    88    97    96    1
    89    97   102   am
    90    42    41    1
    91   104   103    1
    92    35    34    2
    93    96    95    1
    94    95    89   am
    95    94    92    1
    96    93    91    1
    97    41    44    1
    98    41    40    1
    99    47    45    1
   100   103   102    1
   101   103   106    1
   102    34    40   am
   103    34    33    1
   104    44    45    1
   105    89    88    1
   106    89    90    2
   107    38    36    1
   108    88    91    1
   109    88    87    1
   110    92    91    1
   111    45    46    1
   112    30    29    1
   113   106   107    1
   114    33    36    1
   115    33    32    1
   116    24    25    1
   117    29    28    1
   118    29    31    1
   119    36    37    1
   120    28    25    1
   121   107   108    1
   122    25    26    1
   123    37    39    1
   124   108   110   ar
   125   108   109   ar
   126    26    27    2
