@<TRIPOS>MOLECULE
tmp/2agxB00.pdb
 95 93 0 0 0
SMALL
GASTEIGER

@<TRIPOS>ATOM
      1  N         56.0520   18.4900   25.6450 N.3    26  ASP26      -0.1225
      2  CA        54.9680   18.1610   26.5530 C.3    26  ASP26       0.1805
      3  C         53.6630   18.7430   25.9780 C.2    26  ASP26       0.2598
      4  O         53.4240   19.9780   26.0300 O.2    26  ASP26      -0.2718
      5  CB        55.2550   18.7350   27.9390 C.3    26  ASP26       0.1424
      6  CG        54.1450   18.4600   28.9340 C.2    26  ASP26       0.3668
      7  OD1       53.2480   17.6390   28.6220 O.co2  26  ASP26      -0.2456
      8  OD2       54.0950   19.0250   30.0570 O.co2  26  ASP26      -0.2456
      9  N         52.8390   17.8700   25.4030 N.am   27  GLY27      -0.1957
     10  CA        51.5720   18.3250   24.7950 C.3    27  GLY27       0.1869
     11  C         51.3050   17.7180   23.4320 C.2    27  GLY27       0.2309
     12  O         51.9980   16.7860   23.0180 O.2    27  GLY27      -0.2863
     13  N         60.3770   25.4570   21.7300 N.3    67  TYR67      -0.1241
     14  CA        59.0920   24.7620   21.8290 C.3    67  TYR67       0.1605
     15  C         57.9300   25.7210   22.0970 C.2    67  TYR67       0.2264
     16  O         57.4880   25.8990   23.2210 O.2    67  TYR67      -0.2867
     17  CB        59.1440   23.6490   22.8750 C.3    67  TYR67       0.0534
     18  CG        60.2110   22.5940   22.6390 C.ar   67  TYR67      -0.0201
     19  CD1       61.4510   22.6940   23.2470 C.ar   67  TYR67      -0.0009
     20  CD2       59.9660   21.4810   21.8360 C.ar   67  TYR67      -0.0009
     21  CE1       62.4340   21.7250   23.0590 C.ar   67  TYR67       0.0417
     22  CE2       60.9580   20.4920   21.6370 C.ar   67  TYR67       0.0417
     23  CZ        62.1820   20.6310   22.2610 C.ar   67  TYR67       0.1957
     24  OH        63.1740   19.6920   22.0920 O.3    67  TYR67      -0.2866
     25  N         54.0070   27.0030   21.8110 N.3    69  ASP69      -0.1239
     26  CA        52.6610   26.4500   21.8380 C.3    69  ASP69       0.1674
     27  C         51.7850   27.2430   20.8780 C.2    69  ASP69       0.2266
     28  O         52.1410   28.3530   20.4650 O.2    69  ASP69      -0.2867
     29  CB        52.0670   26.5420   23.2520 C.3    69  ASP69       0.1410
     30  CG        52.7790   25.6500   24.2550 C.2    69  ASP69       0.3668
     31  OD1       53.4670   24.6850   23.8410 O.co2  69  ASP69      -0.2456
     32  OD2       52.7050   25.8410   25.4810 O.co2  69  ASP69      -0.2456
     33  N         59.2910   22.2730   30.8480 N.3    97  ASN97      -0.1225
     34  CA        58.0700   22.0290   30.0390 C.3    97  ASN97       0.1785
     35  C         56.8210   21.5690   30.7980 C.2    97  ASN97       0.2597
     36  O         55.8360   21.1650   30.1860 O.2    97  ASN97      -0.2718
     37  CB        58.3500   21.1580   28.7860 C.3    97  ASN97       0.1169
     38  CG        58.5640   19.6850   29.1060 C.2    97  ASN97       0.2627
     39  OD1       58.1830   19.1980   30.1620 O.2    97  ASN97      -0.2716
     40  ND2       59.1790   18.9690   28.1760 N.am   97  ASN97      -0.0877
     41  N         56.8440   21.6470   32.1240 N.am   98  ASP98      -0.1960
     42  CA        55.6340   21.3800   32.9260 C.3    98  ASP98       0.1840
     43  C         54.8150   22.6310   33.2270 C.2    98  ASP98       0.2622
     44  O         53.9990   22.6310   34.1490 O.2    98  ASP98      -0.2715
     45  CB        55.9720   20.7130   34.2620 C.3    98  ASP98       0.1450
     46  CG        56.6620   19.3900   34.1000 C.2    98  ASP98       0.3671
     47  OD1       56.5720   18.7780   33.0060 O.co2  98  ASP98      -0.2456
     48  OD2       57.3120   18.8830   35.0390 O.co2  98  ASP98      -0.2456
     49  N         55.0620   23.7000   32.4820 N.am   99  VAL99      -0.1963
     50  CA        54.2410   24.8950   32.5620 C.3    99  VAL99       0.1727
     51  C         53.6200   25.1310   31.1960 C.2    99  VAL99       0.2616
     52  O         54.0660   24.5690   30.2050 O.2    99  VAL99      -0.2715
     53  CB        55.0680   26.1510   32.9850 C.3    99  VAL99       0.0290
     54  CG1       55.4630   26.0790   34.4650 C.3    99  VAL99       0.0023
     55  CG2       56.3070   26.3490   32.0860 C.3    99  VAL99       0.0023
     56  N         52.5850   25.9690   31.1660 N.am  100  ASN100     -0.1958
     57  CA        51.9090   26.3520   29.9540 C.3   100  ASN100      0.1819
     58  C         52.6470   27.5260   29.2630 C.2   100  ASN100      0.2621
     59  O         52.5800   28.6630   29.7220 O.2   100  ASN100     -0.2715
     60  CB        50.4820   26.7420   30.3450 C.3   100  ASN100      0.1195
     61  CG        49.6280   27.1630   29.1650 C.2   100  ASN100      0.2630
     62  OD1       49.9020   26.8190   28.0100 O.2   100  ASN100     -0.2716
     63  ND2       48.5740   27.9250   29.4590 N.am  100  ASN100     -0.0877
     64  N         53.3430   27.2620   28.1590 N.am  101  TRP101     -0.1974
     65  CA        54.0350   28.3410   27.4490 C.3   101  TRP101      0.1640
     66  C         53.0940   29.3380   26.6970 C.2   101  TRP101      0.2290
     67  O         53.5580   30.3320   26.1150 O.2   101  TRP101     -0.2864
     68  CB        55.2530   27.8310   26.6370 C.3   101  TRP101      0.0576
     69  CG        56.4490   27.5370   27.5780 C.ar  101  TRP101      0.0006
     70  CD1       57.0470   26.3220   27.8300 C.ar  101  TRP101      0.0946
     71  CD2       57.1060   28.4740   28.4380 C.ar  101  TRP101      0.0152
     72  NE1       58.0420   26.4600   28.7590 N.ar  101  TRP101     -0.2442
     73  CE2       58.1000   27.7700   29.1540 C.ar  101  TRP101      0.0810
     74  CE3       56.9660   29.8520   28.6670 C.ar  101  TRP101      0.0012
     75  CZ2       58.9470   28.3930   30.0850 C.ar  101  TRP101      0.0191
     76  CZ3       57.8310   30.4680   29.5650 C.ar  101  TRP101      0.0001
     77  CH2       58.7810   29.7260   30.2900 C.ar  101  TRP101      0.0015
     78  N         45.5100   26.3510   26.2670 N.3   110  PHE110     -0.1241
     79  CA        46.5060   25.5770   25.5360 C.3   110  PHE110      0.1605
     80  C         45.8500   24.6740   24.4760 C.2   110  PHE110      0.2264
     81  O         44.9580   23.8570   24.7870 O.2   110  PHE110     -0.2867
     82  CB        47.3400   24.7270   26.5100 C.3   110  PHE110      0.0534
     83  CG        48.2270   23.6930   25.8290 C.ar  110  PHE110     -0.0203
     84  CD1       49.4470   24.0740   25.2380 C.ar  110  PHE110     -0.0042
     85  CD2       47.8380   22.3350   25.7750 C.ar  110  PHE110     -0.0042
     86  CE1       50.2600   23.1330   24.6050 C.ar  110  PHE110     -0.0003
     87  CE2       48.6370   21.3810   25.1430 C.ar  110  PHE110     -0.0003
     88  CZ        49.8570   21.7710   24.5520 C.ar  110  PHE110     -0.0000
     89  N         51.2690   22.0180   20.8580 N.3   113  THR113     -0.1218
     90  CA        52.6340   22.4540   20.9860 C.3   113  THR113      0.1862
     91  C         53.4490   21.9920   19.7820 C.2   113  THR113      0.2287
     92  O         53.0450   21.1020   19.0330 O.2   113  THR113     -0.2866
     93  CB        53.2130   21.9800   22.3470 C.3   113  THR113      0.1770
     94  OG1       54.5400   22.5020   22.5060 O.3   113  THR113     -0.2211
     95  CG2       53.4030   20.4760   22.3610 C.3   113  THR113      0.0375
@<TRIPOS>BOND
     1    92    91    2
     2    91    90    1
     3    28    27    2
     4    89    90    1
     5    27    26    1
     6    90    93    1
     7    22    20   ar
     8    22    23   ar
     9    13    14    1
    10    25    26    1
    11    14    15    1
    12    14    17    1
    13    20    18   ar
    14    26    29    1
    15    24    23    1
    16    15    16    2
    17    23    21   ar
    18    93    95    1
    19    93    94    1
    20    18    17    1
    21    18    19   ar
    22    12    11    2
    23    21    19   ar
    24    29    30    1
    25    11    10    1
    26    31    30   ar
    27    30    32   ar
    28    80    81    2
    29    80    79    1
    30    88    86   ar
    31    88    87   ar
    32    86    84   ar
    33    10     9    1
    34    87    85   ar
    35    84    83   ar
    36     9     3   am
    37    79    78    1
    38    79    82    1
    39     1     2    1
    40    85    83   ar
    41    83    82    1
    42     3     4    2
    43     3     2    1
    44    67    66    2
    45     2     5    1
    46    68    65    1
    47    68    69    1
    48    66    65    1
    49    65    64    1
    50    69    70   ar
    51    69    71   ar
    52    70    72   ar
    53     5     6    1
    54    62    61    2
    55    64    58   am
    56    40    38   am
    57    71    74   ar
    58    71    73   ar
    59     7     6   ar
    60    74    76   ar
    61    72    73   ar
    62    37    38    1
    63    37    34    1
    64     6     8   ar
    65    38    39    2
    66    73    75   ar
    67    61    63   am
    68    61    60    1
    69    58    59    2
    70    58    57    1
    71    76    77   ar
    72    57    60    1
    73    57    56    1
    74    34    35    1
    75    34    33    1
    76    75    77   ar
    77    36    35    2
    78    52    51    2
    79    35    41   am
    80    56    51   am
    81    51    50    1
    82    55    53    1
    83    41    42    1
    84    49    50    1
    85    49    43   am
    86    50    53    1
    87    42    43    1
    88    42    45    1
    89    53    54    1
    90    47    46   ar
    91    43    44    2
    92    46    45    1
    93    46    48   ar
