@<TRIPOS>MOLECULE
tmp/2ah4A00.pdb
 116 114 0 0 0
SMALL
GASTEIGER

@<TRIPOS>ATOM
      1  N         19.9120   12.2480   24.7250 N.3    40  HIS40      -0.1241
      2  CA        20.7970   11.1120   24.7380 C.3    40  HIS40       0.1621
      3  C         21.8940   11.2660   25.8050 C.2    40  HIS40       0.2264
      4  O         22.5510   10.2870   26.1200 O.2    40  HIS40      -0.2867
      5  CB        21.3300   10.8010   23.3330 C.3    40  HIS40       0.0745
      6  CG        22.5310   11.5740   22.9260 C.ar   40  HIS40       0.0817
      7  ND1       22.4820   12.6120   22.0200 N.ar   40  HIS40      -0.2268
      8  CD2       23.8380   11.4040   23.2310 C.ar   40  HIS40       0.1154
      9  CE1       23.7000   13.0900   21.8350 C.ar   40  HIS40       0.1986
     10  NE2       24.5460   12.3610   22.5500 N.ar   40  HIS40      -0.2212
     11  N         34.1480   20.6740   13.0870 N.3   171  ASP171     -0.1225
     12  CA        32.8950   20.0210   13.5170 C.3   171  ASP171      0.1805
     13  C         32.8760   19.8650   15.0180 C.2   171  ASP171      0.2598
     14  O         33.8720   20.0620   15.7090 O.2   171  ASP171     -0.2718
     15  CB        32.8140   18.6320   12.8370 C.3   171  ASP171      0.1424
     16  CG        31.4310   18.0380   12.6660 C.2   171  ASP171      0.3668
     17  OD1       30.4050   18.5970   13.1390 O.co2 171  ASP171     -0.2456
     18  OD2       31.3850   16.9600   12.0220 O.co2 171  ASP171     -0.2456
     19  N         31.7010   19.5340   15.5460 N.am  172  SER172     -0.1938
     20  CA        31.5740   18.9910   16.8940 C.3   172  SER172      0.2055
     21  C         31.9460   17.5280   16.9250 C.2   172  SER172      0.2643
     22  O         32.1070   16.8920   15.8860 O.2   172  SER172     -0.2714
     23  CB        30.1570   19.2310   17.4000 C.3   172  SER172      0.2130
     24  OG        29.2100   18.5980   16.5540 O.3   172  SER172     -0.2179
     25  N         32.1140   16.9860   18.1320 N.am  173  CYS173     -0.1953
     26  CA        32.5670   15.6120   18.3020 C.3   173  CYS173      0.1843
     27  C         32.1310   15.0350   19.6390 C.2   173  CYS173      0.2625
     28  O         31.4910   15.7190   20.4070 O.2   173  CYS173     -0.2714
     29  CB        34.0970   15.5540   18.0890 C.3   173  CYS173      0.0997
     30  SG        34.7860   13.9100   17.6490 S.3   173  CYS173     -0.0797
     31  N         32.4630   13.7780   19.9130 N.am  174  GLN174     -0.1963
     32  CA        32.1130   13.1340   21.1650 C.3   174  GLN174      0.1733
     33  C         32.5350   13.9690   22.3530 C.2   174  GLN174      0.2616
     34  O         33.6570   14.4780   22.3860 O.2   174  GLN174     -0.2715
     35  CB        32.7780   11.7630   21.2250 C.3   174  GLN174      0.0408
     36  CG        32.0640   10.6100   20.3810 C.3   174  GLN174      0.0908
     37  CD        32.1200   10.6430   18.8180 C.2   174  GLN174      0.2608
     38  OE1       31.0790   10.3800   18.1200 O.2   174  GLN174     -0.2717
     39  NE2       33.3050   10.8880   18.2760 N.am  174  GLN174     -0.0878
     40  N         31.6390   14.1080   23.3090 N.am  175  GLY175     -0.1955
     41  CA        31.8950   14.9280   24.4700 C.3   175  GLY175      0.1869
     42  C         31.3400   16.3420   24.3420 C.2   175  GLY175      0.2309
     43  O         31.2030   17.0270   25.3550 O.2   175  GLY175     -0.2863
     44  N         28.3220   16.7570   22.8310 N.3   177  SER177     -0.1217
     45  CA        26.8500   16.5980   22.6860 C.3   177  SER177      0.1889
     46  C         26.1310   17.0790   23.9110 C.2   177  SER177      0.2288
     47  O         26.6460   17.0520   25.0250 O.2   177  SER177     -0.2866
     48  CB        26.4540   15.1780   22.2950 C.3   177  SER177      0.2089
     49  OG        26.8090   14.9620   20.9030 O.3   177  SER177     -0.2183
     50  N         23.9110   20.2540   20.3050 N.3   191  VAL191     -0.1231
     51  CA        24.8140   19.3090   19.6550 C.3   191  VAL191      0.1692
     52  C         24.2550   17.9080   19.8460 C.2   191  VAL191      0.2593
     53  O         24.0510   17.4480   20.9580 O.2   191  VAL191     -0.2718
     54  CB        26.2360   19.4300   20.2740 C.3   191  VAL191      0.0266
     55  CG1       27.1820   18.4570   19.6120 C.3   191  VAL191      0.0020
     56  CG2       26.7960   20.8390   20.1950 C.3   191  VAL191      0.0020
     57  N         23.9670   17.2130   18.7380 N.am  192  SER192     -0.1938
     58  CA        23.1560   15.9760   18.7850 C.3   192  SER192      0.2055
     59  C         23.8980   14.7620   18.2090 C.2   192  SER192      0.2643
     60  O         24.1830   13.8370   18.9440 O.2   192  SER192     -0.2714
     61  CB        21.7650   16.1980   18.1840 C.3   192  SER192      0.2130
     62  OG        20.9990   15.0100   18.2440 O.3   192  SER192     -0.2179
     63  N         24.2070   14.7170   16.9130 N.am  193  TRP193     -0.1959
     64  CA        24.7950   13.5170   16.3120 C.3   193  TRP193      0.1771
     65  C         25.4680   13.8310   14.9840 C.2   193  TRP193      0.2620
     66  O         25.3550   14.9270   14.4500 O.2   193  TRP193     -0.2715
     67  CB        23.7180   12.4260   16.1770 C.3   193  TRP193      0.0590
     68  CG        22.6060   12.7030   15.2080 C.ar  193  TRP193      0.0006
     69  CD1       21.4730   13.3810   15.4510 C.ar  193  TRP193      0.0946
     70  CD2       22.5220   12.2480   13.8640 C.ar  193  TRP193      0.0152
     71  NE1       20.6580   13.3770   14.3370 N.ar  193  TRP193     -0.2442
     72  CE2       21.2970   12.6960   13.3380 C.ar  193  TRP193      0.0810
     73  CE3       23.3640   11.5090   13.0290 C.ar  193  TRP193      0.0012
     74  CZ2       20.8980   12.4180   12.0300 C.ar  193  TRP193      0.0191
     75  CZ3       22.9880   11.2420   11.7540 C.ar  193  TRP193      0.0001
     76  CH2       21.7600   11.6940   11.2560 C.ar  193  TRP193      0.0015
     77  N         26.1820   12.8380   14.4640 N.am  194  GLY194     -0.1940
     78  CA        26.7360   12.8960   13.1270 C.3   194  GLY194      0.2014
     79  C         27.5340   11.6460   12.9260 C.2   194  GLY194      0.2640
     80  O         27.8220   10.9510   13.8700 O.2   194  GLY194     -0.2714
     81  N         27.9660   11.3670   11.7100 N.am  195  SER195     -0.1935
     82  CA        28.7500   10.1750   11.4430 C.3   195  SER195      0.2055
     83  C         30.2280   10.4980   11.5770 C.2   195  SER195      0.2644
     84  O         30.8110   11.2130   10.7810 O.2   195  SER195     -0.2714
     85  CB        28.4590    9.6910   10.0490 C.3   195  SER195      0.2130
     86  OG        29.2080    8.4580    9.8330 O.3   195  SER195     -0.2179
     87  N         30.8730    9.9310   12.6150 N.am  196  GLY196     -0.1939
     88  CA        32.2110   10.3740   12.9820 C.3   196  GLY196      0.2014
     89  C         32.1910   11.8380   13.3350 C.2   196  GLY196      0.2639
     90  O         31.1470   12.3970   13.7120 O.2   196  GLY196     -0.2714
     91  N         33.3200   12.4840   13.1650 N.am  197  CYS197     -0.1967
     92  CA        33.4590   13.9100   13.3930 C.3   197  CYS197      0.1712
     93  C         34.3530   14.4890   12.3270 C.2   197  CYS197      0.2296
     94  O         35.3840   13.9070   11.9880 O.2   197  CYS197     -0.2864
     95  CB        34.2190   14.1730   14.7110 C.3   197  CYS197      0.0983
     96  SG        33.5800   13.2740   16.1330 S.3   197  CYS197     -0.0798
     97  N         29.7740   14.8170    6.0060 N.3   202  LYS202     -0.1245
     98  CA        29.0960   14.3370    7.2240 C.3   202  LYS202      0.1561
     99  C         29.1590   15.4260    8.2820 C.2   202  LYS202      0.2260
    100  O         29.8720   15.3270    9.2740 O.2   202  LYS202     -0.2867
    101  CB        29.7320   13.0540    7.7240 C.3   202  LYS202      0.0271
    102  CG        29.5660   11.8870    6.7280 C.3   202  LYS202      0.0035
    103  CD        28.0620   11.4730    6.6180 C.3   202  LYS202      0.0206
    104  CE        27.8440   10.4190    5.5400 C.3   202  LYS202      0.1093
    105  NZ        26.4220    9.9800    5.3980 N.3   202  LYS202     -0.1314
    106  N         27.7720   18.0240   11.2950 N.3   204  GLY204     -0.1210
    107  CA        27.0330   17.8290   12.5170 C.3   204  GLY204      0.1956
    108  C         25.5580   18.0390   12.3060 C.2   204  GLY204      0.2611
    109  O         25.1060   18.8580   11.5080 O.2   204  GLY204     -0.2717
    110  N         24.7940   17.2950   13.0950 N.am  205  VAL205     -0.1979
    111  CA        23.3510   17.3740   13.1390 C.3   205  VAL205      0.1595
    112  C         22.9430   17.8240   14.5350 C.2   205  VAL205      0.2287
    113  O         23.4630   17.3410   15.5450 O.2   205  VAL205     -0.2864
    114  CB        22.6650   16.0450   12.7740 C.3   205  VAL205      0.0276
    115  CG1       21.1320   16.2780   12.5730 C.3   205  VAL205      0.0022
    116  CG2       23.2590   15.4710   11.5090 C.3   205  VAL205      0.0022
@<TRIPOS>BOND
     1   105   104    1
     2   104   103    1
     3    97    98    1
     4   103   102    1
     5   102   101    1
     6    98   101    1
     7    98    99    1
     8    99   100    2
     9    86    85    1
    10    85    82    1
    11    84    83    2
    12    76    75   ar
    13    76    74   ar
    14   106   107    1
    15    82    83    1
    16    82    81    1
    17   109   108    2
    18   116   114    1
    19    83    87   am
    20    81    79   am
    21    75    73   ar
    22    94    93    2
    23    18    16   ar
    24    74    72   ar
    25   108   107    1
    26   108   110   am
    27    93    92    1
    28   115   114    1
    29    87    88    1
    30    16    15    1
    31    16    17   ar
    32   114   111    1
    33    15    12    1
    34    79    78    1
    35    79    80    2
    36    88    89    1
    37    73    70   ar
    38    11    12    1
    39   110   111    1
    40    78    77    1
    41   111   112    1
    42    91    89   am
    43    91    92    1
    44    89    90    2
    45    72    70   ar
    46    72    71   ar
    47    92    95    1
    48    12    13    1
    49    70    68   ar
    50    71    69   ar
    51    66    65    2
    52    77    65   am
    53   112   113    2
    54    95    96    1
    55    65    64    1
    56    13    19   am
    57    13    14    2
    58    68    69   ar
    59    68    67    1
    60    19    20    1
    61    22    21    2
    62    96    30    1
    63    67    64    1
    64    64    63    1
    65    24    23    1
    66    20    21    1
    67    20    23    1
    68    63    59   am
    69    21    25   am
    70    30    29    1
    71    29    26    1
    72    38    37    2
    73    25    26    1
    74    61    62    1
    75    61    58    1
    76    59    58    1
    77    59    60    2
    78    39    37   am
    79    26    27    1
    80    57    58    1
    81    57    52   am
    82    37    36    1
    83    55    54    1
    84    27    31   am
    85    27    28    2
    86    51    52    1
    87    51    54    1
    88    51    50    1
    89    52    53    2
    90    31    32    1
    91    56    54    1
    92    36    35    1
    93    49    48    1
    94    32    35    1
    95    32    33    1
    96     9     7   ar
    97     9    10   ar
    98     7     6   ar
    99    48    45    1
   100    33    34    2
   101    33    40   am
   102    10     8   ar
   103    45    44    1
   104    45    46    1
   105     6     8   ar
   106     6     5    1
   107    40    41    1
   108     5     2    1
   109    46    47    2
   110    42    41    1
   111    42    43    2
   112     1     2    1
   113     2     3    1
   114     3     4    2
