@<TRIPOS>MOLECULE
tmp/2ah9A00.pdb
 132 132 0 0 0
SMALL
GASTEIGER

@<TRIPOS>ATOM
      1  N         22.6090   47.9870   34.3560 N.3   149  LYS149     -0.1231
      2  CA        23.1170   46.6750   34.7260 C.3   149  LYS149      0.1693
      3  C         22.2600   45.9490   35.7570 C.2   149  LYS149      0.2592
      4  O         22.4250   44.7500   35.9440 O.2   149  LYS149     -0.2718
      5  CB        24.5740   46.7520   35.2020 C.3   149  LYS149      0.0285
      6  CG        24.8080   47.3630   36.5540 C.3   149  LYS149      0.0035
      7  CD        26.2180   46.9700   37.0370 C.3   149  LYS149      0.0206
      8  CE        26.5720   47.6060   38.3580 C.3   149  LYS149      0.1093
      9  NZ        27.9700   47.2770   38.7960 N.3   149  LYS149     -0.1314
     10  N         21.3450   46.6480   36.4270 N.am  150  PHE150     -0.1976
     11  CA        20.4580   45.9760   37.3850 C.3   150  PHE150      0.1639
     12  C         19.0300   45.9830   36.8290 C.2   150  PHE150      0.2290
     13  O         18.0510   45.8630   37.5710 O.2   150  PHE150     -0.2864
     14  CB        20.4810   46.6610   38.7580 C.3   150  PHE150      0.0560
     15  CG        21.7960   46.5250   39.4830 C.ar  150  PHE150     -0.0200
     16  CD1       22.3850   47.6270   40.0960 C.ar  150  PHE150     -0.0042
     17  CD2       22.4410   45.2930   39.5500 C.ar  150  PHE150     -0.0042
     18  CE1       23.5980   47.5080   40.7670 C.ar  150  PHE150     -0.0003
     19  CE2       23.6630   45.1590   40.2220 C.ar  150  PHE150     -0.0003
     20  CZ        24.2370   46.2700   40.8290 C.ar  150  PHE150     -0.0000
     21  N         18.8290   46.6880   42.9700 N.3   155  PRO155     -0.2102
     22  CA        19.0770   45.2440   43.0810 C.3   155  PRO155      0.1504
     23  C         18.3680   44.6890   44.3270 C.2   155  PRO155      0.2575
     24  O         17.9490   43.5260   44.3490 O.2   155  PRO155     -0.2718
     25  CB        20.6030   45.1520   43.1390 C.3   155  PRO155      0.0282
     26  CG        21.0320   46.5060   43.6720 C.3   155  PRO155      0.0208
     27  CD        20.0870   47.4580   42.9860 C.3   155  PRO155      0.0893
     28  N         18.2540   45.5360   45.3550 N.am  156  TYR156     -0.1977
     29  CA        17.5320   45.2410   46.6050 C.3   156  TYR156      0.1639
     30  C         17.1990   46.5990   47.2180 C.2   156  TYR156      0.2290
     31  O         17.8860   47.5880   46.9420 O.2   156  TYR156     -0.2864
     32  CB        18.3320   44.3430   47.5750 C.3   156  TYR156      0.0560
     33  CG        19.7590   44.7600   47.8440 C.ar  156  TYR156     -0.0198
     34  CD1       20.1220   45.4000   49.0420 C.ar  156  TYR156     -0.0009
     35  CD2       20.7590   44.4560   46.9280 C.ar  156  TYR156     -0.0009
     36  CE1       21.4670   45.7160   49.3100 C.ar  156  TYR156      0.0417
     37  CE2       22.0870   44.7590   47.1800 C.ar  156  TYR156      0.0417
     38  CZ        22.4390   45.3830   48.3670 C.ar  156  TYR156      0.1957
     39  OH        23.7750   45.6330   48.5880 O.3   156  TYR156     -0.2866
     40  N         20.0010   48.7060   48.9430 N.3   159  TYR159     -0.1241
     41  CA        21.2070   48.9640   48.1490 C.3   159  TYR159      0.1605
     42  C         21.5230   50.4680   48.1480 C.2   159  TYR159      0.2264
     43  O         20.6560   51.2880   47.8500 O.2   159  TYR159     -0.2867
     44  CB        20.9880   48.4780   46.7170 C.3   159  TYR159      0.0534
     45  CG        22.1290   48.8290   45.7820 C.ar  159  TYR159     -0.0201
     46  CD1       23.4020   48.2710   45.9480 C.ar  159  TYR159     -0.0009
     47  CD2       21.9330   49.7340   44.7380 C.ar  159  TYR159     -0.0009
     48  CE1       24.4530   48.6150   45.0830 C.ar  159  TYR159      0.0417
     49  CE2       22.9700   50.0830   43.8790 C.ar  159  TYR159      0.0417
     50  CZ        24.2190   49.5230   44.0550 C.ar  159  TYR159      0.1957
     51  OH        25.2180   49.8920   43.1940 O.3   159  TYR159     -0.2866
     52  N         24.8240   51.5510   46.9140 N.3   161  GLY161     -0.1225
     53  CA        26.0870   51.7130   46.2170 C.3   161  GLY161      0.1811
     54  C         26.0190   52.5310   44.9460 C.2   161  GLY161      0.2280
     55  O         24.9440   52.9600   44.5280 O.2   161  GLY161     -0.2866
     56  N         36.6230   44.0870   46.8380 N.3   184  TRP184     -0.1227
     57  CA        35.2320   44.3040   46.4710 C.3   184  TRP184      0.1737
     58  C         34.1250   43.8460   47.4150 C.2   184  TRP184      0.2596
     59  O         34.1880   42.7570   48.0140 O.2   184  TRP184     -0.2718
     60  CB        34.9790   43.6460   45.1140 C.3   184  TRP184      0.0564
     61  CG        33.6210   43.9280   44.5250 C.ar  184  TRP184      0.0003
     62  CD1       33.3200   44.8870   43.6070 C.ar  184  TRP184      0.0946
     63  CD2       32.3910   43.2380   44.8030 C.ar  184  TRP184      0.0152
     64  NE1       31.9840   44.8400   43.2870 N.ar  184  TRP184     -0.2442
     65  CE2       31.3860   43.8410   44.0070 C.ar  184  TRP184      0.0810
     66  CE3       32.0370   42.1720   45.6450 C.ar  184  TRP184      0.0012
     67  CZ2       30.0430   43.4150   44.0270 C.ar  184  TRP184      0.0191
     68  CZ3       30.6950   41.7440   45.6650 C.ar  184  TRP184      0.0001
     69  CH2       29.7200   42.3700   44.8580 C.ar  184  TRP184      0.0015
     70  N         33.1020   44.6920   47.5220 N.am  185  GLY185     -0.1942
     71  CA        31.9180   44.3400   48.2810 C.3   185  GLY185      0.2014
     72  C         31.6840   44.6630   49.7340 C.2   185  GLY185      0.2639
     73  O         32.6130   44.7000   50.5510 O.2   185  GLY185     -0.2714
     74  N         30.4090   44.9090   50.0400 N.am  186  GLY186     -0.1939
     75  CA        29.9920   45.1620   51.4060 C.3   186  GLY186      0.2014
     76  C         30.1430   46.5360   52.0220 C.2   186  GLY186      0.2639
     77  O         29.3390   46.9110   52.8820 O.2   186  GLY186     -0.2714
     78  N         31.1440   47.3010   51.6040 N.am  187  GLU187     -0.1963
     79  CA        31.3400   48.5990   52.2250 C.3   187  GLU187      0.1733
     80  C         30.1450   49.5190   52.0450 C.2   187  GLU187      0.2616
     81  O         29.8740   50.3230   52.9270 O.2   187  GLU187     -0.2715
     82  CB        32.6330   49.2730   51.7210 C.3   187  GLU187      0.0429
     83  CG        32.4720   50.1910   50.5150 C.3   187  GLU187      0.1163
     84  CD        32.1670   49.4550   49.2240 C.2   187  GLU187      0.3649
     85  OE1       31.7870   50.1460   48.2490 O.co2 187  GLU187     -0.2457
     86  OE2       32.3200   48.2120   49.1730 O.co2 187  GLU187     -0.2457
     87  N         29.4210   49.4010   50.9280 N.am  188  ASP188     -0.1957
     88  CA        28.2390   50.2530   50.7190 C.3   188  ASP188      0.1840
     89  C         27.0910   49.8420   51.6410 C.2   188  ASP188      0.2622
     90  O         26.2970   50.6900   52.0750 O.2   188  ASP188     -0.2715
     91  CB        27.7980   50.2340   49.2470 C.3   188  ASP188      0.1450
     92  CG        27.6750   48.8240   48.6740 C.2   188  ASP188      0.3671
     93  OD1       28.4170   47.9210   49.1190 O.co2 188  ASP188     -0.2456
     94  OD2       26.8490   48.6290   47.7530 O.co2 188  ASP188     -0.2456
     95  N         27.0060   48.5430   51.9320 N.am  189  ASP189     -0.1971
     96  CA        25.9790   48.0200   52.8360 C.3   189  ASP189      0.1709
     97  C         26.3170   48.4420   54.2570 C.2   189  ASP189      0.2293
     98  O         25.4210   48.7090   55.0640 O.2   189  ASP189     -0.2864
     99  CB        25.9130   46.4970   52.7790 C.3   189  ASP189      0.1436
    100  CG        25.3760   45.9760   51.4580 C.2   189  ASP189      0.3671
    101  OD1       24.4600   46.6040   50.8780 O.co2 189  ASP189     -0.2456
    102  OD2       25.8540   44.9150   51.0130 O.co2 189  ASP189     -0.2456
    103  N         33.4710   40.1930   54.1250 N.3   229  ARG229     -0.1231
    104  CA        32.4200   41.2100   54.0270 C.3   229  ARG229      0.1694
    105  C         31.0860   40.9120   54.7110 C.2   229  ARG229      0.2592
    106  O         30.5290   41.7780   55.3790 O.2   229  ARG229     -0.2718
    107  CB        32.1740   41.5850   52.5570 C.3   229  ARG229      0.0321
    108  CG        31.5930   40.5050   51.6620 C.3   229  ARG229      0.0489
    109  CD        31.5890   41.0300   50.2340 C.3   229  ARG229      0.2205
    110  NE        30.8700   40.1980   49.2720 N.pl3 229  ARG229     -0.0865
    111  CZ        31.3260   39.0560   48.7620 C.cat 229  ARG229      0.5346
    112  NH1       32.5150   38.5730   49.1230 N.pl3 229  ARG229      0.1354
    113  NH2       30.6080   38.4130   47.8520 N.pl3 229  ARG229      0.1354
    114  N         30.5680   39.7010   54.5490 N.am  230  PHE230     -0.1976
    115  CA        29.2860   39.3620   55.1630 C.3   230  PHE230      0.1639
    116  C         29.4010   39.4540   56.6740 C.2   230  PHE230      0.2290
    117  O         28.4790   39.8670   57.3760 O.2   230  PHE230     -0.2864
    118  CB        28.8580   37.9630   54.7310 C.3   230  PHE230      0.0560
    119  CG        28.7330   37.8160   53.2500 C.ar  230  PHE230     -0.0200
    120  CD1       29.7520   37.2270   52.5080 C.ar  230  PHE230     -0.0042
    121  CD2       27.6080   38.2960   52.5870 C.ar  230  PHE230     -0.0042
    122  CE1       29.6550   37.1140   51.1270 C.ar  230  PHE230     -0.0003
    123  CE2       27.4990   38.1900   51.2040 C.ar  230  PHE230     -0.0003
    124  CZ        28.5250   37.5960   50.4700 C.ar  230  PHE230     -0.0000
    125  N         29.6350   43.3730   57.7610 N.3   233  ILE233     -0.1245
    126  CA        28.4150   44.1850   57.7600 C.3   233  ILE233      0.1561
    127  C         27.4570   43.8170   58.8910 C.2   233  ILE233      0.2260
    128  O         26.5370   44.5660   59.2060 O.2   233  ILE233     -0.2867
    129  CB        27.6680   44.1220   56.4040 C.3   233  ILE233      0.0252
    130  CG1       27.1940   42.6980   56.1150 C.3   233  ILE233      0.0019
    131  CG2       28.6000   44.6280   55.2810 C.3   233  ILE233      0.0019
    132  CD1       26.3670   42.5840   54.8340 C.3   233  ILE233      0.0001
@<TRIPOS>BOND
     1     1     2    1
     2     2     5    1
     3     2     3    1
     4     5     6    1
     5     3     4    2
     6     3    10   am
     7    10    11    1
     8     6     7    1
     9    12    11    1
    10    12    13    2
    11     7     8    1
    12    11    14    1
    13     8     9    1
    14    14    15    1
    15    15    17   ar
    16    15    16   ar
    17    17    19   ar
    18    16    18   ar
    19    19    20   ar
    20    18    20   ar
    21    21    27    1
    22    21    22    1
    23    27    26    1
    24    22    25    1
    25    22    23    1
    26    25    26    1
    27    51    50    1
    28    64    62   ar
    29    64    65   ar
    30    62    61   ar
    31    49    50   ar
    32    49    47   ar
    33    65    67   ar
    34    65    63   ar
    35    67    69   ar
    36    50    48   ar
    37    23    24    2
    38    23    28   am
    39    61    63   ar
    40    61    60    1
    41    55    54    2
    42    47    45   ar
    43    63    66   ar
    44    69    68   ar
    45    54    53    1
    46    48    46   ar
    47    60    57    1
    48    28    29    1
    49    66    68   ar
    50    45    46   ar
    51    45    44    1
    52    53    52    1
    53    57    56    1
    54    57    58    1
    55    29    30    1
    56    29    32    1
    57    44    41    1
    58    35    37   ar
    59    35    33   ar
    60    31    30    2
    61    37    38   ar
    62    58    70   am
    63    58    59    2
    64    70    71    1
    65    32    33    1
    66    94    92   ar
    67    33    34   ar
    68    43    42    2
    69   113   111    1
    70    42    41    1
    71    41    40    1
    72    85    84   ar
    73    71    72    1
    74    38    39    1
    75    38    36   ar
    76    92    93   ar
    77    92    91    1
    78   111   112    1
    79   111   110    2
    80    34    36   ar
    81    86    84   ar
    82    84    83    1
    83    91    88    1
    84   110   109    1
    85    72    74   am
    86    72    73    2
    87    74    75    1
    88   109   108    1
    89   124   122   ar
    90   124   123   ar
    91    83    82    1
    92    88    87    1
    93    88    89    1
    94   101   100   ar
    95    87    80   am
    96   102   100   ar
    97   122   120   ar
    98   123   121   ar
    99    75    76    1
   100   100    99    1
   101    78    76   am
   102    78    79    1
   103    89    95   am
   104    89    90    2
   105   108   107    1
   106    82    79    1
   107    95    96    1
   108    76    77    2
   109    80    79    1
   110    80    81    2
   111   120   119   ar
   112   107   104    1
   113   121   119   ar
   114    99    96    1
   115    96    97    1
   116   119   118    1
   117   104   103    1
   118   104   105    1
   119    97    98    2
   120   114   105   am
   121   114   115    1
   122   105   106    2
   123   118   115    1
   124   132   130    1
   125   115   116    1
   126   131   129    1
   127   130   129    1
   128   129   126    1
   129   116   117    2
   130   126   125    1
   131   126   127    1
   132   127   128    2
