@<TRIPOS>MOLECULE
tmp/2ahcB00.pdb
 113 104 0 0 0
SMALL
GASTEIGER

@<TRIPOS>ATOM
      1  N         61.5390   19.9940   25.5660 N.3    33  SER33      -0.1202
      2  CA        61.9710   21.0170   24.6090 C.3    33  SER33       0.2020
      3  C         62.4710   20.6430   23.2620 C.2    33  SER33       0.2619
      4  O         62.7880   19.4920   22.9240 O.2    33  SER33      -0.2717
      5  CB        62.9180   22.1100   25.2180 C.3    33  SER33       0.2103
      6  OG        62.9980   23.3500   24.4330 O.3    33  SER33      -0.2182
      7  N         62.4250   21.7170   22.4970 N.am   34  MET34      -0.1965
      8  CA        62.7940   21.8350   21.1140 C.3    34  MET34       0.1736
      9  C         64.1700   21.3190   20.7690 C.2    34  MET34       0.2617
     10  O         64.3420   20.7130   19.7300 O.2    34  MET34      -0.2715
     11  CB        62.6950   23.3020   20.7110 C.3    34  MET34       0.0427
     12  CG        62.3720   23.4990   19.2480 C.3    34  MET34       0.0599
     13  SD        60.9380   22.6340   18.7700 S.3    34  MET34      -0.1393
     14  CE        59.6180   23.6400   19.4200 C.3    34  MET34       0.0692
     15  N         65.1330   21.5730   21.6370 N.am   35  THR35      -0.1951
     16  CA        66.4810   21.1420   21.3750 C.3    35  THR35       0.1897
     17  C         66.5670   19.6350   21.2330 C.2    35  THR35       0.2313
     18  O         67.1260   19.1440   20.2460 O.2    35  THR35      -0.2863
     19  CB        67.4460   21.5850   22.4760 C.3    35  THR35       0.1794
     20  OG1       67.4580   23.0140   22.5530 O.3    35  THR35      -0.2208
     21  CG2       68.8600   21.0640   22.1770 C.3    35  THR35       0.0378
     22  N         74.0470   26.3720   18.4120 N.3    47  VAL47      -0.1245
     23  CA        73.5900   27.7300   18.5950 C.3    47  VAL47       0.1561
     24  C         74.5240   28.8430   18.1800 C.2    47  VAL47       0.2260
     25  O         75.7380   28.7560   18.3460 O.2    47  VAL47      -0.2867
     26  CB        73.1750   27.9240   20.0650 C.3    47  VAL47       0.0252
     27  CG1       73.4540   29.3500   20.5400 C.3    47  VAL47       0.0019
     28  CG2       71.6830   27.5870   20.1940 C.3    47  VAL47       0.0019
     29  N         67.9400   36.9400   25.8480 N.3    76  ARG76      -0.1245
     30  CA        68.7950   36.0210   25.1330 C.3    76  ARG76       0.1563
     31  C         68.2380   35.7340   23.7600 C.2    76  ARG76       0.2260
     32  O         67.1440   35.2170   23.6150 O.2    76  ARG76      -0.2867
     33  CB        68.9630   34.7300   25.9530 C.3    76  ARG76       0.0307
     34  CG        69.8170   33.6220   25.3390 C.3    76  ARG76       0.0489
     35  CD        69.7130   32.4110   26.2420 C.3    76  ARG76       0.2205
     36  NE        70.0340   31.1500   25.5910 N.pl3  76  ARG76      -0.0865
     37  CZ        71.2640   30.6840   25.4510 C.cat  76  ARG76       0.5346
     38  NH1       72.2920   31.3670   25.9190 N.pl3  76  ARG76       0.1354
     39  NH2       71.4440   29.5370   24.8240 N.pl3  76  ARG76       0.1354
     40  N         69.1830   34.0000   19.9330 N.3    78  ILE78      -0.1245
     41  CA        70.0480   33.0980   19.2150 C.3    78  ILE78       0.1561
     42  C         69.3370   32.4590   18.0310 C.2    78  ILE78       0.2260
     43  O         68.1530   32.6790   17.7790 O.2    78  ILE78      -0.2867
     44  CB        70.4710   31.9430   20.1420 C.3    78  ILE78       0.0252
     45  CG1       69.2250   31.2000   20.6600 C.3    78  ILE78       0.0019
     46  CG2       71.2500   32.4580   21.3290 C.3    78  ILE78       0.0019
     47  CD1       68.6220   30.1850   19.7060 C.3    78  ILE78       0.0001
     48  N         69.0310   28.4630   16.2800 N.3    80  LEU80      -0.1245
     49  CA        69.2550   27.0540   16.5670 C.3    80  LEU80       0.1561
     50  C         69.4200   26.3080   15.2460 C.2    80  LEU80       0.2260
     51  O         68.5470   26.3620   14.3890 O.2    80  LEU80      -0.2867
     52  CB        68.0820   26.4710   17.3610 C.3    80  LEU80       0.0270
     53  CG        68.3750   25.1170   18.0420 C.3    80  LEU80       0.0019
     54  CD1       69.5520   25.3230   19.0170 C.3    80  LEU80       0.0001
     55  CD2       67.1090   24.5660   18.8050 C.3    80  LEU80       0.0001
     56  N         65.4360   27.5060   13.6710 N.3    88  LEU88      -0.1245
     57  CA        64.6600   28.3380   14.5510 C.3    88  LEU88       0.1561
     58  C         65.3780   29.5350   15.1330 C.2    88  LEU88       0.2260
     59  O         66.5790   29.5120   15.3580 O.2    88  LEU88      -0.2867
     60  CB        64.1000   27.4350   15.6890 C.3    88  LEU88       0.0270
     61  CG        63.6150   27.9570   17.0610 C.3    88  LEU88       0.0019
     62  CD1       62.9110   26.8580   17.8450 C.3    88  LEU88       0.0001
     63  CD2       64.7790   28.5020   17.8370 C.3    88  LEU88       0.0001
     64  N         65.2040   31.9620   18.4890 N.3    90  GLY90      -0.1225
     65  CA        64.6360   31.9540   19.8250 C.3    90  GLY90       0.1811
     66  C         64.9910   33.2390   20.5430 C.2    90  GLY90       0.2280
     67  O         66.0960   33.7700   20.4220 O.2    90  GLY90      -0.2866
     68  N         64.4250   34.6570   24.4840 N.3    92  THR92      -0.1218
     69  CA        64.0520   34.2940   25.8480 C.3    92  THR92       0.1862
     70  C         64.2640   35.4590   26.7490 C.2    92  THR92       0.2287
     71  O         65.3010   36.1280   26.6780 O.2    92  THR92      -0.2866
     72  CB        64.9280   33.1440   26.3410 C.3    92  THR92       0.1770
     73  OG1       64.7770   32.0440   25.4420 O.3    92  THR92      -0.2211
     74  CG2       64.5230   32.6830   27.7840 C.3    92  THR92       0.0375
     75  N         72.5150   25.1290   24.2110 N.3   113  PRO113     -0.2102
     76  CA        71.0600   25.3030   24.0600 C.3   113  PRO113      0.1504
     77  C         70.3920   25.2640   25.4470 C.2   113  PRO113      0.2575
     78  O         70.7870   24.4620   26.3040 O.2   113  PRO113     -0.2718
     79  CB        70.6530   24.1070   23.2140 C.3   113  PRO113      0.0282
     80  CG        71.9080   23.7010   22.5690 C.3   113  PRO113      0.0208
     81  CD        72.9570   23.8870   23.5710 C.3   113  PRO113      0.0893
     82  N         69.3850   26.1200   25.6420 N.am  114  LEU114     -0.1980
     83  CA        68.6460   26.2740   26.9100 C.3   114  LEU114      0.1596
     84  C         67.8240   25.0760   27.4700 C.2   114  LEU114      0.2287
     85  O         67.4060   24.1770   26.7110 O.2   114  LEU114     -0.2864
     86  CB        67.7350   27.5000   26.7680 C.3   114  LEU114      0.0297
     87  CG        66.7330   27.8510   27.8500 C.3   114  LEU114      0.0022
     88  CD1       67.4330   28.0010   29.1660 C.3   114  LEU114      0.0001
     89  CD2       66.0380   29.1520   27.4450 C.3   114  LEU114      0.0001
     90  N         59.6850   32.3920   26.8060 N.3   153  LEU153     -0.1231
     91  CA        60.3950   31.8070   25.6630 C.3   153  LEU153      0.1693
     92  C         59.5620   32.0140   24.3780 C.2   153  LEU153      0.2593
     93  O         58.4040   31.5700   24.2700 O.2   153  LEU153     -0.2718
     94  CB        60.6420   30.2750   25.8380 C.3   153  LEU153      0.0284
     95  CG        61.7960   29.6600   26.6450 C.3   153  LEU153      0.0019
     96  CD1       61.6310   29.9850   28.1830 C.3   153  LEU153      0.0001
     97  CD2       61.8220   28.1850   26.4000 C.3   153  LEU153      0.0001
     98  N         60.1530   32.6810   23.3940 N.am  154  THR154     -0.1939
     99  CA        59.4670   32.8730   22.1200 C.3   154  THR154      0.2028
    100  C         60.3660   32.2160   21.0590 C.2   154  THR154      0.2642
    101  O         61.5900   32.3510   21.1090 O.2   154  THR154     -0.2714
    102  CB        59.2550   34.3850   21.8060 C.3   154  THR154      0.1808
    103  OG1       58.5770   35.0180   22.9030 O.3   154  THR154     -0.2208
    104  CG2       58.4080   34.5660   20.5610 C.3   154  THR154      0.0379
    105  N         59.7550   31.4950   20.1260 N.am  155  GLU155     -0.1976
    106  CA        60.4920   30.7910   19.0620 C.3   155  GLU155      0.1602
    107  C         59.8290   31.0160   17.7120 C.2   155  GLU155      0.2287
    108  O         58.6220   30.9580   17.6190 O.2   155  GLU155     -0.2864
    109  CB        60.5190   29.2550   19.3210 C.3   155  GLU155      0.0415
    110  CG        60.9440   28.8310   20.7400 C.3   155  GLU155      0.1163
    111  CD        60.4590   27.4690   21.1340 C.2   155  GLU155      0.3649
    112  OE1       61.2380   26.4850   21.0570 O.co2 155  GLU155     -0.2457
    113  OE2       59.2910   27.3680   21.5230 O.co2 155  GLU155     -0.2457
@<TRIPOS>BOND
     1    56    57    1
     2    51    50    2
     3    57    58    1
     4    57    60    1
     5    58    59    2
     6    50    49    1
     7    60    61    1
     8    48    49    1
     9    49    52    1
    10    61    63    1
    11    61    62    1
    12    52    53    1
    13   108   107    2
    14   107   106    1
    15    43    42    2
    16    42    41    1
    17    53    55    1
    18    53    54    1
    19    24    25    2
    20    24    23    1
    21    22    23    1
    22    64    65    1
    23    23    26    1
    24    13    12    1
    25    13    14    1
    26   106   109    1
    27   106   105    1
    28    41    40    1
    29    41    44    1
    30    12    11    1
    31   109   110    1
    32    47    45    1
    33    10     9    2
    34    65    66    1
    35    26    28    1
    36    26    27    1
    37   105   100   am
    38    44    45    1
    39    44    46    1
    40    18    17    2
    41    67    66    2
    42   104   102    1
    43    11     8    1
    44   110   111    1
    45     9     8    1
    46     9    15   am
    47   112   111   ar
    48   100   101    2
    49   100    99    1
    50     8     7    1
    51   111   113   ar
    52    17    16    1
    53    16    15    1
    54    16    19    1
    55   102    99    1
    56   102   103    1
    57    99    98    1
    58    21    19    1
    59    19    20    1
    60     7     3   am
    61    80    79    1
    62    80    81    1
    63     4     3    2
    64    79    76    1
    65     3     2    1
    66    98    92   am
    67    81    75    1
    68    32    31    2
    69    31    30    1
    70    76    75    1
    71    76    77    1
    72    93    92    2
    73    92    91    1
    74     6     5    1
    75    68    69    1
    76     2     5    1
    77     2     1    1
    78    39    37    1
    79    30    29    1
    80    30    33    1
    81    34    33    1
    82    34    35    1
    83    73    72    1
    84    77    82   am
    85    77    78    2
    86    37    36    2
    87    37    38    1
    88    36    35    1
    89    82    83    1
    90    91    94    1
    91    91    90    1
    92    94    95    1
    93    69    72    1
    94    69    70    1
    95    72    74    1
    96    97    95    1
    97    95    96    1
    98    71    70    2
    99    85    84    2
   100    86    83    1
   101    86    87    1
   102    83    84    1
   103    89    87    1
   104    87    88    1
