@<TRIPOS>MOLECULE
tmp/2ahgB00.pdb
 179 180 0 0 0
SMALL
GASTEIGER

@<TRIPOS>ATOM
      1  N          5.5890  -80.2760  236.5870 N.3    41  ASP41      -0.1225
      2  CA         5.8170  -80.8660  235.2720 C.3    41  ASP41       0.1805
      3  C          4.6500  -80.6190  234.3140 C.2    41  ASP41       0.2597
      4  O          3.7650  -79.8030  234.5970 O.2    41  ASP41      -0.2718
      5  CB         6.0640  -82.3680  235.4160 C.3    41  ASP41       0.1424
      6  CG         7.1220  -82.8750  234.4600 C.2    41  ASP41       0.3668
      7  OD1        7.0320  -82.5510  233.2530 O.co2  41  ASP41      -0.2456
      8  OD2        8.0410  -83.5960  234.9120 O.co2  41  ASP41      -0.2456
      9  N          4.6480  -81.3170  233.1780 N.am   42  TRP42      -0.1976
     10  CA         3.5650  -81.1600  232.2100 C.3    42  TRP42       0.1640
     11  C          2.4470  -82.1740  232.4210 C.2    42  TRP42       0.2290
     12  O          1.3690  -82.0530  231.8370 O.2    42  TRP42      -0.2864
     13  CB         4.0900  -81.2930  230.7620 C.3    42  TRP42       0.0576
     14  CG         4.6140  -82.6680  230.4000 C.ar   42  TRP42       0.0006
     15  CD1        5.8560  -83.1620  230.6580 C.ar   42  TRP42       0.0946
     16  CD2        3.8900  -83.7290  229.7560 C.ar   42  TRP42       0.0152
     17  NE1        5.9530  -84.4620  230.2220 N.ar   42  TRP42      -0.2442
     18  CE2        4.7600  -84.8350  229.6660 C.ar   42  TRP42       0.0810
     19  CE3        2.5900  -83.8510  229.2510 C.ar   42  TRP42       0.0012
     20  CZ2        4.3730  -86.0500  229.0940 C.ar   42  TRP42       0.0191
     21  CZ3        2.2050  -85.0630  228.6810 C.ar   42  TRP42       0.0001
     22  CH2        3.0950  -86.1440  228.6090 C.ar   42  TRP42       0.0015
     23  N          5.4440  -72.9270  228.4690 N.3    86  HIS86      -0.1226
     24  CA         5.3170  -73.9400  227.4410 C.3    86  HIS86       0.1752
     25  C          3.8910  -74.1220  226.9300 C.2    86  HIS86       0.2596
     26  O          2.9460  -73.4840  227.3980 O.2    86  HIS86      -0.2718
     27  CB         5.8640  -75.2760  227.9580 C.3    86  HIS86       0.0759
     28  CG         5.0970  -75.8440  229.1130 C.ar   86  HIS86       0.0818
     29  ND1        5.5830  -76.8740  229.8890 N.ar   86  HIS86      -0.2268
     30  CD2        3.8740  -75.5440  229.6120 C.ar   86  HIS86       0.1154
     31  CE1        4.6940  -77.1830  230.8170 C.ar   86  HIS86       0.1986
     32  NE2        3.6470  -76.3910  230.6700 N.ar   86  HIS86      -0.2212
     33  N          3.7700  -75.0160  225.9570 N.am   87  HIS87      -0.1961
     34  CA         2.5180  -75.3590  225.2970 C.3    87  HIS87       0.1787
     35  C          1.5740  -76.2110  226.1430 C.2    87  HIS87       0.2620
     36  O          0.3550  -76.1660  225.9620 O.2    87  HIS87      -0.2715
     37  CB         2.8390  -76.1350  224.0190 C.3    87  HIS87       0.0785
     38  CG         3.7910  -77.2750  224.2350 C.ar   87  HIS87       0.0821
     39  ND1        3.7380  -78.4430  223.5050 N.ar   87  HIS87      -0.2267
     40  CD2        4.8280  -77.4190  225.0960 C.ar   87  HIS87       0.1154
     41  CE1        4.6990  -79.2570  223.9050 C.ar   87  HIS87       0.1986
     42  NE2        5.3760  -78.6590  224.8700 N.ar   87  HIS87      -0.2212
     43  N          2.1400  -76.9870  227.0610 N.am   88  ASN88      -0.1972
     44  CA         1.3560  -77.8970  227.8830 C.3    88  ASN88       0.1688
     45  C          0.4170  -77.2980  228.9320 C.2    88  ASN88       0.2292
     46  O          0.0620  -77.9650  229.9080 O.2    88  ASN88      -0.2864
     47  CB         2.2950  -78.9200  228.5250 C.3    88  ASN88       0.1181
     48  CG         3.0650  -79.7250  227.4860 C.2    88  ASN88       0.2629
     49  OD1        2.4790  -80.2540  226.5370 O.2    88  ASN88      -0.2716
     50  ND2        4.3820  -79.8200  227.6600 N.am   88  ASN88      -0.0877
     51  N         -2.8810  -79.3110  228.7950 N.3    91  PHE91      -0.1241
     52  CA        -2.8410  -80.5940  229.4840 C.3    91  PHE91       0.1605
     53  C         -3.0830  -80.3610  230.9760 C.2    91  PHE91       0.2264
     54  O         -3.7860  -81.1240  231.6360 O.2    91  PHE91      -0.2867
     55  CB        -1.4730  -81.2610  229.3220 C.3    91  PHE91       0.0534
     56  CG        -1.3170  -82.0680  228.0600 C.ar   91  PHE91      -0.0203
     57  CD1       -2.3120  -82.9450  227.6520 C.ar   91  PHE91      -0.0042
     58  CD2       -0.1470  -81.9870  227.3140 C.ar   91  PHE91      -0.0042
     59  CE1       -2.1430  -83.7350  226.5190 C.ar   91  PHE91      -0.0003
     60  CE2        0.0330  -82.7720  226.1770 C.ar   91  PHE91      -0.0003
     61  CZ        -0.9650  -83.6470  225.7810 C.ar   91  PHE91      -0.0000
     62  N          8.4500  -75.7830  223.4210 N.3   134  TRP134     -0.1241
     63  CA         9.3870  -75.6780  224.5380 C.3   134  TRP134      0.1605
     64  C         10.3450  -74.4870  224.4170 C.2   134  TRP134      0.2264
     65  O         10.3500  -73.7790  223.4080 O.2   134  TRP134     -0.2867
     66  CB        10.1910  -76.9810  224.6410 C.3   134  TRP134      0.0550
     67  CG        11.0110  -77.1210  225.8900 C.ar  134  TRP134      0.0003
     68  CD1       10.5530  -77.0970  227.1790 C.ar  134  TRP134      0.0946
     69  CD2       12.4260  -77.3440  225.9700 C.ar  134  TRP134      0.0152
     70  NE1       11.5960  -77.2950  228.0550 N.ar  134  TRP134     -0.2442
     71  CE2       12.7560  -77.4490  227.3410 C.ar  134  TRP134      0.0810
     72  CE3       13.4480  -77.4680  225.0160 C.ar  134  TRP134      0.0012
     73  CZ2       14.0670  -77.6730  227.7830 C.ar  134  TRP134      0.0191
     74  CZ3       14.7550  -77.6910  225.4560 C.ar  134  TRP134      0.0001
     75  CH2       15.0490  -77.7910  226.8290 C.ar  134  TRP134      0.0015
     76  N          5.2430  -79.2920  218.1460 N.3   147  ILE147     -0.1245
     77  CA         5.2190  -80.6970  218.5200 C.3   147  ILE147      0.1561
     78  C          3.7920  -81.2060  218.3780 C.2   147  ILE147      0.2260
     79  O          2.8370  -80.5010  218.7010 O.2   147  ILE147     -0.2867
     80  CB         5.7210  -80.8960  219.9640 C.3   147  ILE147      0.0252
     81  CG1        7.1400  -80.3320  220.1010 C.3   147  ILE147      0.0019
     82  CG2        5.7370  -82.3730  220.3060 C.3   147  ILE147      0.0019
     83  CD1        7.7230  -80.4350  221.5140 C.3   147  ILE147      0.0001
     84  N          1.9520  -83.2500  220.0830 N.3   149  ASP149     -0.1239
     85  CA         1.0730  -83.2950  221.2440 C.3   149  ASP149      0.1674
     86  C          0.4410  -81.9370  221.5400 C.2   149  ASP149      0.2266
     87  O         -0.4820  -81.8370  222.3450 O.2   149  ASP149     -0.2867
     88  CB         1.8050  -83.8570  222.4770 C.3   149  ASP149      0.1410
     89  CG         3.0380  -83.0680  222.8570 C.2   149  ASP149      0.3668
     90  OD1        3.9650  -83.6830  223.4290 O.co2 149  ASP149     -0.2456
     91  OD2        3.0820  -81.8460  222.6050 O.co2 149  ASP149     -0.2456
     92  N          7.2570  -86.2900  214.8800 N.3   193  HIS193     -0.1241
     93  CA         6.9850  -85.9220  216.2620 C.3   193  HIS193      0.1621
     94  C          6.9960  -84.3970  216.3600 C.2   193  HIS193      0.2264
     95  O          6.0710  -83.7900  216.8950 O.2   193  HIS193     -0.2867
     96  CB         8.0560  -86.5070  217.1900 C.3   193  HIS193      0.0745
     97  CG         7.9110  -86.0830  218.6180 C.ar  193  HIS193      0.0817
     98  ND1        8.9550  -86.1280  219.5170 N.ar  193  HIS193     -0.2268
     99  CD2        6.8450  -85.6060  219.3030 C.ar  193  HIS193      0.1154
    100  CE1        8.5390  -85.6930  220.6940 C.ar  193  HIS193      0.1986
    101  NE2        7.2620  -85.3690  220.5910 N.ar  193  HIS193     -0.2212
    102  N         12.6420  -87.9570  220.7520 N.3   211  GLN211     -0.1245
    103  CA        12.0070  -89.0820  221.4330 C.3   211  GLN211      0.1566
    104  C         11.7500  -90.3020  220.5510 C.2   211  GLN211      0.2260
    105  O         12.0080  -91.4290  220.9690 O.2   211  GLN211     -0.2867
    106  CB        10.6930  -88.6290  222.0820 C.3   211  GLN211      0.0367
    107  CG        10.8860  -87.9130  223.4110 C.3   211  GLN211      0.0905
    108  CD         9.5770  -87.5740  224.0950 C.2   211  GLN211      0.2608
    109  OE1        8.8680  -86.6480  223.6880 O.2   211  GLN211     -0.2717
    110  NE2        9.2440  -88.3280  225.1420 N.am  211  GLN211     -0.0878
    111  N          6.8290  -92.5380  216.1600 N.3   219  TRP219     -0.1241
    112  CA         6.7330  -92.7020  217.6100 C.3   219  TRP219      0.1605
    113  C          5.2440  -92.9590  217.8720 C.2   219  TRP219      0.2264
    114  O          4.4090  -92.1120  217.5780 O.2   219  TRP219     -0.2867
    115  CB         7.2050  -91.4020  218.2630 C.3   219  TRP219      0.0550
    116  CG         7.3710  -91.4460  219.7410 C.ar  219  TRP219      0.0003
    117  CD1        8.0310  -92.3940  220.4670 C.ar  219  TRP219      0.0946
    118  CD2        6.9450  -90.4470  220.6700 C.ar  219  TRP219      0.0152
    119  NE1        8.0480  -92.0420  221.7980 N.ar  219  TRP219     -0.2442
    120  CE2        7.3870  -90.8510  221.9490 C.ar  219  TRP219      0.0810
    121  CE3        6.2340  -89.2460  220.5470 C.ar  219  TRP219      0.0012
    122  CZ2        7.1410  -90.0920  223.1030 C.ar  219  TRP219      0.0191
    123  CZ3        5.9880  -88.4910  221.6920 C.ar  219  TRP219      0.0001
    124  CH2        6.4420  -88.9190  222.9540 C.ar  219  TRP219      0.0015
    125  N          3.2700  -92.8450  220.5050 N.3   221  ARG221     -0.1245
    126  CA         2.5150  -91.8560  221.2780 C.3   221  ARG221      0.1563
    127  C          2.3090  -90.6040  220.4190 C.2   221  ARG221      0.2260
    128  O          1.2830  -89.9270  220.5220 O.2   221  ARG221     -0.2867
    129  CB         3.2280  -91.4880  222.5910 C.3   221  ARG221      0.0307
    130  CG         2.5180  -90.3680  223.3550 C.3   221  ARG221      0.0489
    131  CD         2.6930  -90.4400  224.8820 C.3   221  ARG221      0.2205
    132  NE         4.0120  -90.0300  225.3500 N.pl3 221  ARG221     -0.0865
    133  CZ         4.9560  -90.8710  225.7470 C.cat 221  ARG221      0.5346
    134  NH1        6.1250  -90.4030  226.1620 N.pl3 221  ARG221      0.1354
    135  NH2        4.7300  -92.1780  225.7280 N.pl3 221  ARG221      0.1354
    136  N         -1.1770  -89.0060  219.7460 N.3   225  TRP225     -0.1241
    137  CA        -1.4970  -87.5970  219.9660 C.3   225  TRP225      0.1605
    138  C         -2.2200  -87.0940  218.7130 C.2   225  TRP225      0.2264
    139  O         -3.2190  -86.3760  218.7890 O.2   225  TRP225     -0.2867
    140  CB        -0.2200  -86.7750  220.1690 C.3   225  TRP225      0.0550
    141  CG         0.5140  -86.9720  221.4830 C.ar  225  TRP225      0.0003
    142  CD1        1.8710  -86.9990  221.6570 C.ar  225  TRP225      0.0946
    143  CD2       -0.0580  -87.0630  222.8040 C.ar  225  TRP225      0.0152
    144  NE1        2.1820  -87.0950  222.9960 N.ar  225  TRP225     -0.2442
    145  CE2        1.0190  -87.1350  223.7220 C.ar  225  TRP225      0.0810
    146  CE3       -1.3690  -87.0860  223.2990 C.ar  225  TRP225      0.0012
    147  CZ2        0.8220  -87.2290  225.1140 C.ar  225  TRP225      0.0191
    148  CZ3       -1.5660  -87.1800  224.6870 C.ar  225  TRP225      0.0001
    149  CH2       -0.4710  -87.2500  225.5720 C.ar  225  TRP225      0.0015
    150  N          8.2990  -93.3950  228.8420 N.3   338  TYR338     -0.1227
    151  CA         8.4350  -91.9470  228.7820 C.3   338  TYR338      0.1736
    152  C          9.4010  -91.5630  227.6740 C.2   338  TYR338      0.2595
    153  O          9.0080  -90.9610  226.6780 O.2   338  TYR338     -0.2718
    154  CB         8.9590  -91.4050  230.1170 C.3   338  TYR338      0.0548
    155  CG         8.9130  -89.8940  230.2550 C.ar  338  TYR338     -0.0200
    156  CD1        9.6270  -89.2440  231.2650 C.ar  338  TYR338     -0.0009
    157  CD2        8.1320  -89.1200  229.4030 C.ar  338  TYR338     -0.0009
    158  CE1        9.5610  -87.8600  231.4200 C.ar  338  TYR338      0.0417
    159  CE2        8.0560  -87.7410  229.5480 C.ar  338  TYR338      0.0417
    160  CZ         8.7700  -87.1150  230.5570 C.ar  338  TYR338      0.1957
    161  OH         8.6780  -85.7460  230.6960 O.3   338  TYR338     -0.2866
    162  N         10.6640  -91.9360  227.8500 N.am  339  HIS339     -0.1975
    163  CA        11.7030  -91.6040  226.8860 C.3   339  HIS339      0.1656
    164  C         12.6650  -92.7730  226.6620 C.2   339  HIS339      0.2291
    165  O         13.7570  -92.8010  227.2290 O.2   339  HIS339     -0.2864
    166  CB        12.4490  -90.3640  227.3960 C.3   339  HIS339      0.0771
    167  CG        13.3590  -89.7370  226.3880 C.ar  339  HIS339      0.0820
    168  ND1       13.1640  -89.8570  225.0270 N.ar  339  HIS339     -0.2267
    169  CD2       14.4580  -88.9610  226.5430 C.ar  339  HIS339      0.1154
    170  CE1       14.1050  -89.1830  224.3890 C.ar  339  HIS339      0.1986
    171  NE2       14.9030  -88.6310  225.2850 N.ar  339  HIS339     -0.2212
    172  N         14.9760  -93.4790  229.8360 N.3   344  ILE344     -0.1245
    173  CA        14.2420  -92.7990  230.9010 C.3   344  ILE344      0.1561
    174  C         12.8560  -93.4250  231.0960 C.2   344  ILE344      0.2260
    175  O         11.9310  -93.1450  230.3310 O.2   344  ILE344     -0.2867
    176  CB        14.0380  -91.3060  230.5750 C.3   344  ILE344      0.0252
    177  CG1       15.3480  -90.6820  230.0810 C.3   344  ILE344      0.0019
    178  CG2       13.5310  -90.5760  231.8130 C.3   344  ILE344      0.0019
    179  CD1       16.3860  -90.4820  231.1410 C.3   344  ILE344      0.0001
@<TRIPOS>BOND
     1    92    93    1
     2   111   112    1
     3    93    94    1
     4    93    96    1
     5    94    95    2
     6    96    97    1
     7   114   113    2
     8   112   113    1
     9   112   115    1
    10    76    77    1
    11   115   116    1
    12    78    77    1
    13    78    79    2
    14    77    80    1
    15    97    99   ar
    16    97    98   ar
    17   138   139    2
    18   138   137    1
    19    99   101   ar
    20    98   100   ar
    21   116   117   ar
    22   116   118   ar
    23   136   137    1
    24    80    81    1
    25    80    82    1
    26   137   140    1
    27    84    85    1
    28    81    83    1
    29   140   141    1
    30   127   128    2
    31   127   126    1
    32   117   119   ar
    33   125   126    1
    34   121   118   ar
    35   121   123   ar
    36   104   105    2
    37   104   103    1
    38   101   100   ar
    39   118   120   ar
    40   102   103    1
    41    85    86    1
    42    85    88    1
    43   126   129    1
    44   103   106    1
    45   141   142   ar
    46   141   143   ar
    47    86    87    2
    48   142   144   ar
    49   123   124   ar
    50   119   120   ar
    51   120   122   ar
    52   106   107    1
    53    88    89    1
    54   129   130    1
    55    91    89   ar
    56   143   146   ar
    57   143   145   ar
    58    89    90   ar
    59   124   122   ar
    60   144   145   ar
    61   146   148   ar
    62   130   131    1
    63    65    64    2
    64   107   108    1
    65    62    63    1
    66    39    41   ar
    67    39    38   ar
    68   109   108    2
    69   145   147   ar
    70    41    42   ar
    71    37    38    1
    72    37    34    1
    73   108   110   am
    74    38    40   ar
    75   170   168   ar
    76   170   171   ar
    77    64    63    1
    78    63    66    1
    79    66    67    1
    80   148   149   ar
    81    42    40   ar
    82   131   132    1
    83    72    74   ar
    84    72    69   ar
    85   168   167   ar
    86   147   149   ar
    87   171   169   ar
    88    34    33    1
    89    34    35    1
    90   132   133    2
    91    74    75   ar
    92   135   133    1
    93   133   134    1
    94    61    60   ar
    95    61    59   ar
    96    67    69   ar
    97    67    68   ar
    98    33    25   am
    99    36    35    2
   100    69    71   ar
   101    35    43   am
   102    60    58   ar
   103   167   169   ar
   104   167   166    1
   105    59    57   ar
   106    49    48    2
   107   164   163    1
   108   164   165    2
   109   153   152    2
   110    75    73   ar
   111   163   166    1
   112   163   162    1
   113    25    26    2
   114    25    24    1
   115    43    44    1
   116    68    70   ar
   117    58    56   ar
   118    71    73   ar
   119    71    70   ar
   120    24    27    1
   121    24    23    1
   122    48    50   am
   123    48    47    1
   124    57    56   ar
   125   152   162   am
   126   152   151    1
   127    44    47    1
   128    44    45    1
   129    27    28    1
   130    56    55    1
   131    22    21   ar
   132    22    20   ar
   133    21    19   ar
   134   151   150    1
   135   151   154    1
   136    51    52    1
   137    45    46    2
   138    20    18   ar
   139    28    30   ar
   140    28    29   ar
   141    19    16   ar
   142    55    52    1
   143   157   159   ar
   144   157   155   ar
   145    52    53    1
   146   159   160   ar
   147    30    32   ar
   148    18    16   ar
   149    18    17   ar
   150    16    14   ar
   151   172   173    1
   152    29    31   ar
   153   177   176    1
   154   177   179    1
   155   154   155    1
   156    17    15   ar
   157   155   156   ar
   158   175   174    2
   159    14    15   ar
   160    14    13    1
   161   160   161    1
   162   160   158   ar
   163   176   173    1
   164   176   178    1
   165    32    31   ar
   166    13    10    1
   167   173   174    1
   168    53    54    2
   169   156   158   ar
   170    12    11    2
   171    10    11    1
   172    10     9    1
   173     9     3   am
   174     7     6   ar
   175     3     4    2
   176     3     2    1
   177     6     8   ar
   178     6     5    1
   179     2     5    1
   180     2     1    1
