@<TRIPOS>MOLECULE
tmp/2ahrA00.pdb
 163 153 0 0 0
SMALL
GASTEIGER

@<TRIPOS>ATOM
      1  N         39.2310   92.5930   64.2060 N.3     6  ILE6       -0.1231
      2  CA        39.8950   93.8230   64.5810 C.3     6  ILE6        0.1692
      3  C         41.0830   94.0650   63.6650 C.2     6  ILE6        0.2593
      4  O         42.0810   93.3100   63.6930 O.2     6  ILE6       -0.2718
      5  CB        40.3870   93.8150   66.0590 C.3     6  ILE6        0.0266
      6  CG1       39.2360   93.5100   67.0150 C.3     6  ILE6        0.0019
      7  CG2       41.0870   95.1460   66.4010 C.3     6  ILE6        0.0020
      8  CD1       39.6540   93.4130   68.4810 C.3     6  ILE6        0.0001
      9  N         40.9890   95.1460   62.8930 N.am    7  GLY7       -0.1942
     10  CA        41.9760   95.4680   61.8770 C.3     7  GLY7        0.2014
     11  C         41.6000   94.7640   60.5890 C.2     7  GLY7        0.2639
     12  O         41.5510   93.5310   60.5420 O.2     7  GLY7       -0.2714
     13  N         41.3100   95.5500   59.5570 N.am    8  VAL8       -0.1963
     14  CA        40.8550   95.0200   58.2710 C.3     8  VAL8        0.1727
     15  C         41.5860   95.7070   57.1280 C.2     8  VAL8        0.2617
     16  O         41.1610   96.7550   56.6330 O.2     8  VAL8       -0.2715
     17  CB        39.3150   95.1540   58.0980 C.3     8  VAL8        0.0290
     18  CG1       38.8570   94.3880   56.8940 C.3     8  VAL8        0.0023
     19  CG2       38.6110   94.6470   59.3280 C.3     8  VAL8        0.0023
     20  N         42.7050   95.1090   56.7350 N.am    9  GLY9       -0.1940
     21  CA        43.5060   95.5920   55.6240 C.3     9  GLY9        0.2014
     22  C         43.3640   94.6140   54.4840 C.2     9  GLY9        0.2638
     23  O         42.2760   94.0620   54.2770 O.2     9  GLY9       -0.2714
     24  N         44.4620   94.3870   53.7550 N.am   10  LYS10      -0.1977
     25  CA        44.4270   93.5370   52.5470 C.3    10  LYS10       0.1596
     26  C         44.0390   92.0850   52.8820 C.2    10  LYS10       0.2287
     27  O         43.0370   91.5610   52.3690 O.2    10  LYS10      -0.2864
     28  CB        45.7630   93.5730   51.7810 C.3    10  LYS10       0.0298
     29  CG        46.3340   94.9580   51.3890 C.3    10  LYS10       0.0038
     30  CD        45.3800   95.8050   50.5140 C.3    10  LYS10       0.0206
     31  CE        45.1140   95.1830   49.1410 C.3    10  LYS10       0.1093
     32  NZ        44.4560   96.1310   48.1780 N.3    10  LYS10      -0.1314
     33  N         42.8680   90.6230   55.7760 N.3    11  ALA11      -0.1245
     34  CA        41.5580   90.5060   56.4330 C.3    11  ALA11       0.1562
     35  C         40.3840   90.6820   55.4520 C.2    11  ALA11       0.2260
     36  O         39.4190   89.9200   55.5060 O.2    11  ALA11      -0.2867
     37  CB        41.4470   91.4840   57.5770 C.3    11  ALA11       0.0290
     38  N         38.0080   98.9340   62.8380 N.3    29  GLY29      -0.1210
     39  CA        39.2500   99.4370   62.2310 C.3    29  GLY29       0.1956
     40  C         40.1480  100.3130   63.0930 C.2    29  GLY29       0.2612
     41  O         40.0510  100.2860   64.3140 O.2    29  GLY29      -0.2717
     42  N         41.0290  101.0850   62.4500 N.am   30  SER30      -0.1952
     43  CA        42.0200  101.9490   63.1330 C.3    30  SER30       0.1924
     44  C         41.4600  103.2630   63.7230 C.2    30  SER30       0.2314
     45  O         42.1500  103.9500   64.4910 O.2    30  SER30      -0.2863
     46  CB        43.1730  102.2980   62.1840 C.3    30  SER30       0.2116
     47  OG        42.7470  103.1830   61.1530 O.3    30  SER30      -0.2180
     48  N         37.4750  105.2810   59.7210 N.3    34  ARG34      -0.1245
     49  CA        38.0000  104.1650   58.9330 C.3    34  ARG34       0.1563
     50  C         37.1120  102.9470   59.0700 C.2    34  ARG34       0.2260
     51  O         36.8450  102.2730   58.0890 O.2    34  ARG34      -0.2867
     52  CB        39.4340  103.8100   59.3480 C.3    34  ARG34       0.0307
     53  CG        40.5080  104.8170   58.9140 C.3    34  ARG34       0.0489
     54  CD        40.7560  104.8240   57.4070 C.3    34  ARG34       0.2205
     55  NE        41.3580  103.5750   56.9480 N.pl3  34  ARG34      -0.0865
     56  CZ        40.8910  102.8090   55.9610 C.cat  34  ARG34       0.5346
     57  NH1       41.5310  101.6840   55.6460 N.pl3  34  ARG34       0.1354
     58  NH2       39.8060  103.1590   55.2740 N.pl3  34  ARG34       0.1354
     59  N         35.2750  101.2770   55.7550 N.3    38  ILE38      -0.1245
     60  CA        35.4900   99.8610   55.4790 C.3    38  ILE38       0.1561
     61  C         34.1970   99.0420   55.5660 C.2    38  ILE38       0.2260
     62  O         33.9450   98.1660   54.7290 O.2    38  ILE38      -0.2867
     63  CB        36.5820   99.2580   56.4160 C.3    38  ILE38       0.0252
     64  CG1       37.9490   99.8940   56.1210 C.3    38  ILE38       0.0019
     65  CG2       36.6350   97.7410   56.2690 C.3    38  ILE38       0.0019
     66  CD1       39.0180   99.6970   57.2210 C.3    38  ILE38       0.0001
     67  N         37.0490   98.8490   69.9240 N.3    49  HIS49      -0.1241
     68  CA        37.4600   97.4360   69.9780 C.3    49  HIS49       0.1621
     69  C         36.7960   96.7050   71.1280 C.2    49  HIS49       0.2264
     70  O         36.3390   95.5710   70.9580 O.2    49  HIS49      -0.2867
     71  CB        38.9850   97.2600   70.0340 C.3    49  HIS49       0.0745
     72  CG        39.6980   97.7590   68.8160 C.ar   49  HIS49       0.0817
     73  ND1       39.0980   97.8280   67.5770 N.ar   49  HIS49      -0.2268
     74  CD2       40.9670   98.2040   68.6460 C.ar   49  HIS49       0.1154
     75  CE1       39.9590   98.3180   66.7030 C.ar   49  HIS49       0.1986
     76  NE2       41.1030   98.5460   67.3240 N.ar   49  HIS49      -0.2212
     77  N         42.0700   88.5640   64.5270 N.3    61  LEU61      -0.1231
     78  CA        42.9630   89.7110   64.5000 C.3    61  LEU61       0.1693
     79  C         43.6000   89.9390   63.1220 C.2    61  LEU61       0.2593
     80  O         44.3300   89.0740   62.6180 O.2    61  LEU61      -0.2718
     81  CB        44.0670   89.5370   65.5430 C.3    61  LEU61       0.0284
     82  CG        43.7340   89.5490   67.0400 C.3    61  LEU61       0.0019
     83  CD1       45.0450   89.5650   67.8010 C.3    61  LEU61       0.0001
     84  CD2       42.8880   90.7750   67.4110 C.3    61  LEU61       0.0001
     85  N         43.3540   91.1210   62.5470 N.am   62  GLY62      -0.1942
     86  CA        43.8840   91.4970   61.2310 C.3    62  GLY62       0.2014
     87  C         44.9000   92.6280   61.1810 C.2    62  GLY62       0.2639
     88  O         45.2060   93.1530   60.0970 O.2    62  GLY62      -0.2714
     89  N         45.4430   92.9930   62.3440 N.am   63  ILE63      -0.1963
     90  CA        46.4400   94.0580   62.4350 C.3    63  ILE63       0.1727
     91  C         47.8250   93.4590   62.1870 C.2    63  ILE63       0.2616
     92  O         47.9950   92.2350   62.2570 O.2    63  ILE63      -0.2715
     93  CB        46.4100   94.7940   63.8160 C.3    63  ILE63       0.0290
     94  CG1       46.7030   93.8160   64.9710 C.3    63  ILE63       0.0022
     95  CG2       45.0690   95.5050   64.0340 C.3    63  ILE63       0.0023
     96  CD1       47.0870   94.4840   66.3110 C.3    63  ILE63       0.0001
     97  N         48.7990   94.3190   61.8910 N.am   64  LYS64      -0.1964
     98  CA        50.1870   93.8990   61.7080 C.3    64  LYS64       0.1713
     99  C         50.8350   93.4780   63.0330 C.2    64  LYS64       0.2458
    100  O         50.4890   94.0080   64.1020 O.2    64  LYS64      -0.2730
    101  CB        51.0050   95.0100   61.0530 C.3    64  LYS64       0.0311
    102  CG        50.6970   95.2340   59.5740 C.3    64  LYS64       0.0038
    103  CD        51.7780   96.1050   58.8870 C.3    64  LYS64       0.0206
    104  CE        51.7300   97.6040   59.2970 C.3    64  LYS64       0.1093
    105  NZ        52.3530   97.9090   60.6400 N.3    64  LYS64      -0.1314
    106  N         51.7840   92.5230   62.9720 N.am   65  PRO65      -0.2727
    107  CA        52.4220   92.0140   64.1930 C.3    65  PRO65       0.1402
    108  C         53.0020   93.1180   65.0870 C.2    65  PRO65       0.2269
    109  O         52.8230   93.0750   66.3140 O.2    65  PRO65      -0.2865
    110  CB        53.5480   91.0870   63.6760 C.3    65  PRO65       0.0296
    111  CG        53.6270   91.2940   62.1720 C.3    65  PRO65       0.0237
    112  CD        52.2840   91.8610   61.7510 C.3    65  PRO65       0.0939
    113  N         52.0960   95.8990   65.7920 N.3    67  LEU67      -0.1245
    114  CA        51.0710   96.6290   66.5200 C.3    67  LEU67       0.1561
    115  C         50.3690   95.7910   67.5800 C.2    67  LEU67       0.2260
    116  O         49.4980   96.2980   68.2640 O.2    67  LEU67      -0.2867
    117  CB        50.0250   97.1770   65.5510 C.3    67  LEU67       0.0270
    118  CG        50.2120   98.6200   65.0810 C.3    67  LEU67       0.0019
    119  CD1       51.5050   98.8200   64.2910 C.3    67  LEU67       0.0001
    120  CD2       49.0170   99.0250   64.2400 C.3    67  LEU67       0.0001
    121  N         48.1180   97.6690   70.5690 N.3    71  VAL71      -0.1245
    122  CA        46.6800   97.6180   70.3120 C.3    71  VAL71       0.1561
    123  C         45.9290   96.6420   71.2310 C.2    71  VAL71       0.2260
    124  O         44.7790   96.8810   71.5770 O.2    71  VAL71      -0.2867
    125  CB        46.3890   97.3050   68.7840 C.3    71  VAL71       0.0252
    126  CG1       44.9060   97.0980   68.5100 C.3    71  VAL71       0.0019
    127  CG2       46.9440   98.4030   67.8880 C.3    71  VAL71       0.0019
    128  N         48.7080   86.7990   62.0640 N.3    84  ALA84      -0.1231
    129  CA        49.9680   87.5290   62.0000 C.3    84  ALA84       0.1694
    130  C         51.2020   86.6470   61.8880 C.2    84  ALA84       0.2591
    131  O         51.3470   85.6800   62.6410 O.2    84  ALA84      -0.2718
    132  CB        50.1020   88.4080   63.2070 C.3    84  ALA84       0.0304
    133  N         52.0930   87.0180   60.9680 N.am   85  ALA85      -0.1980
    134  CA        53.4300   86.4390   60.8650 C.3    85  ALA85       0.1597
    135  C         54.2420   86.7500   62.1180 C.2    85  ALA85       0.2287
    136  O         54.0860   87.8130   62.7050 O.2    85  ALA85      -0.2864
    137  CB        54.1560   86.9990   59.6410 C.3    85  ALA85       0.0319
    138  N         47.1420   82.3830   56.2470 N.3   106  PRO106     -0.2102
    139  CA        46.5190   82.3580   54.9350 C.3   106  PRO106      0.1504
    140  C         47.3930   83.0710   53.8910 C.2   106  PRO106      0.2575
    141  O         48.5180   83.5060   54.1950 O.2   106  PRO106     -0.2718
    142  CB        45.2260   83.1720   55.1620 C.3   106  PRO106      0.0282
    143  CG        45.6740   84.2400   56.1230 C.3   106  PRO106      0.0208
    144  CD        46.7020   83.5560   57.0390 C.3   106  PRO106      0.0893
    145  N         46.8760   83.1930   52.6730 N.am  107  ASN107     -0.1975
    146  CA        47.5340   84.0140   51.6600 C.3   107  ASN107      0.1688
    147  C         46.4980   84.7230   50.8100 C.2   107  ASN107      0.2292
    148  O         45.3030   84.4640   50.9670 O.2   107  ASN107     -0.2864
    149  CB        48.5110   83.1810   50.8160 C.3   107  ASN107      0.1181
    150  CG        47.8190   82.1250   49.9720 C.2   107  ASN107      0.2629
    151  OD1       46.6960   82.3220   49.4910 O.2   107  ASN107     -0.2716
    152  ND2       48.4880   81.0040   49.7740 N.am  107  ASN107     -0.0877
    153  N         54.8860   80.1290   56.5790 N.3   154  THR154     -0.1218
    154  CA        54.6650   81.5460   56.2660 C.3   154  THR154      0.1862
    155  C         55.3790   81.9590   54.9660 C.2   154  THR154      0.2287
    156  O         54.8080   82.6510   54.1090 O.2   154  THR154     -0.2866
    157  CB        55.0890   82.4640   57.4540 C.3   154  THR154      0.1770
    158  OG1       54.2420   82.1980   58.5880 O.3   154  THR154     -0.2211
    159  CG2       55.0110   83.9600   57.0630 C.3   154  THR154      0.0375
    160  N         52.3840   81.8350   52.4340 N.3   158  GLY158     -0.1225
    161  CA        51.9280   83.1950   52.7300 C.3   158  GLY158      0.1811
    162  C         52.6400   84.2790   51.9340 C.2   158  GLY158      0.2280
    163  O         51.9940   85.1670   51.3380 O.2   158  GLY158     -0.2866
@<TRIPOS>BOND
     1    32    31    1
     2    31    30    1
     3   151   150    2
     4   152   150   am
     5   150   149    1
     6    30    29    1
     7   147   148    2
     8   147   146    1
     9   149   146    1
    10   163   162    2
    11    29    28    1
    12   146   145    1
    13    28    25    1
    14   162   161    1
    15    27    26    2
    16   160   161    1
    17    25    26    1
    18    25    24    1
    19   145   140   am
    20    24    22   am
    21   140   141    2
    22   140   139    1
    23   156   155    2
    24    23    22    2
    25    22    21    1
    26    62    61    2
    27   139   142    1
    28   139   138    1
    29   155   154    1
    30   142   143    1
    31    58    56    1
    32    35    36    2
    33    35    34    1
    34    60    61    1
    35    60    59    1
    36    60    63    1
    37    21    20    1
    38    57    56    1
    39    33    34    1
    40    56    55    2
    41    64    63    1
    42    64    66    1
    43   143   144    1
    44   138   144    1
    45   154   153    1
    46   154   157    1
    47    65    63    1
    48    34    37    1
    49    16    15    2
    50    20    15   am
    51    18    17    1
    52    55    54    1
    53   159   157    1
    54    15    14    1
    55    54    53    1
    56   157   158    1
    57    51    50    2
    58    17    14    1
    59    17    19    1
    60    14    13    1
    61   103   104    1
    62   103   102    1
    63    53    52    1
    64    49    50    1
    65    49    52    1
    66    49    48    1
    67   104   105    1
    68    13    11   am
    69   102   101    1
    70   137   134    1
    71    88    87    2
    72    12    11    2
    73    11    10    1
    74   134   133    1
    75   134   135    1
    76   133   130   am
    77   101    98    1
    78    47    46    1
    79    87    86    1
    80    87    89   am
    81    86    85    1
    82    98    97    1
    83    98    99    1
    84   112   111    1
    85   112   106    1
    86    10     9    1
    87   130   129    1
    88   130   131    2
    89    97    91   am
    90   129   128    1
    91   129   132    1
    92   135   136    2
    93   111   110    1
    94    46    43    1
    95    91    92    2
    96    91    90    1
    97    39    38    1
    98    39    40    1
    99    89    90    1
   100    90    93    1
   101    42    40   am
   102    42    43    1
   103    85    79   am
   104    80    79    2
   105     9     3   am
   106   106    99   am
   107   106   107    1
   108    99   100    2
   109    40    41    2
   110    79    78    1
   111    43    44    1
   112     3     4    2
   113     3     2    1
   114   110   107    1
   115    44    45    2
   116    93    95    1
   117    93    94    1
   118   107   108    1
   119     1     2    1
   120   120   118    1
   121   119   118    1
   122    78    77    1
   123    78    81    1
   124     2     5    1
   125    94    96    1
   126   118   117    1
   127   108   109    2
   128    81    82    1
   129   117   114    1
   130   113   114    1
   131     5     7    1
   132     5     6    1
   133   114   115    1
   134    75    76   ar
   135    75    73   ar
   136     6     8    1
   137    82    84    1
   138    82    83    1
   139    76    74   ar
   140    73    72   ar
   141   115   116    2
   142   127   125    1
   143   126   125    1
   144    74    72   ar
   145   125   122    1
   146    72    71    1
   147    67    68    1
   148    68    71    1
   149    68    69    1
   150   122   121    1
   151   122   123    1
   152    70    69    2
   153   123   124    2
