@<TRIPOS>MOLECULE
tmp/2ahxB03.pdb
 99 94 0 0 0
SMALL
GASTEIGER

@<TRIPOS>ATOM
      1  N         83.1600   29.0270  177.5520 N.3     1  ARG1       -0.1231
      2  CA        83.9440   29.1740  178.8110 C.3     1  ARG1        0.1694
      3  C         84.1530   30.6460  179.1700 C.2     1  ARG1        0.2591
      4  O         83.1980   31.3220  179.5580 O.2     1  ARG1       -0.2718
      5  CB        85.3030   28.4760  178.6770 C.3     1  ARG1        0.0321
      6  CG        86.1650   28.4540  179.9730 C.3     1  ARG1        0.0489
      7  CD        85.7790   27.3090  180.9170 C.3     1  ARG1        0.2205
      8  NE        86.6210   27.2060  182.1150 N.pl3   1  ARG1       -0.0865
      9  CZ        86.4950   27.9730  183.2050 C.cat   1  ARG1        0.5346
     10  NH1       85.5580   28.9220  183.2690 N.pl3   1  ARG1        0.1354
     11  NH2       87.2960   27.7810  184.2510 N.pl3   1  ARG1        0.1354
     12  N         85.3840   31.1480  179.0460 N.am    2  GLN2       -0.1979
     13  CA        85.6560   32.5410  179.3990 C.3     2  GLN2        0.1601
     14  C         86.5010   33.3390  178.4020 C.2     2  GLN2        0.2287
     15  O         86.3200   34.5540  178.2820 O.2     2  GLN2       -0.2864
     16  CB        86.2810   32.6110  180.8060 C.3     2  GLN2        0.0394
     17  CG        85.3340   32.1100  181.9080 C.3     2  GLN2        0.0908
     18  CD        85.8080   32.4140  183.3290 C.2     2  GLN2        0.2608
     19  OE1       86.8130   31.8770  183.7980 O.2     2  GLN2       -0.2717
     20  NE2       85.0720   33.2770  184.0210 N.am    2  GLN2       -0.0878
     21  N         83.3630   26.2980  171.5680 N.3    58  GLU58      -0.1245
     22  CA        82.2170   26.8320  170.8470 C.3    58  GLU58       0.1567
     23  C         82.5960   27.7250  169.6820 C.2    58  GLU58       0.2260
     24  O         83.6210   28.4060  169.7060 O.2    58  GLU58      -0.2867
     25  CB        81.3230   27.6430  171.7810 C.3    58  GLU58       0.0388
     26  CG        80.6830   26.8380  172.8720 C.3    58  GLU58       0.1160
     27  CD        79.6420   27.6280  173.6290 C.2    58  GLU58       0.3649
     28  OE1       78.8710   28.3600  172.9660 O.co2  58  GLU58      -0.2457
     29  OE2       79.5950   27.5080  174.8760 O.co2  58  GLU58      -0.2457
     30  N         72.4670   23.9080  185.4040 N.3   220  THR220     -0.1218
     31  CA        73.8720   24.1320  185.7080 C.3   220  THR220      0.1862
     32  C         74.6780   22.8940  185.2860 C.2   220  THR220      0.2287
     33  O         75.9000   22.8630  185.4180 O.2   220  THR220     -0.2866
     34  CB        74.0860   24.4180  187.2110 C.3   220  THR220      0.1770
     35  OG1       73.4640   23.3920  187.9930 O.3   220  THR220     -0.2211
     36  CG2       73.4800   25.7650  187.5860 C.3   220  THR220      0.0375
     37  N         74.5240   21.7080  182.0950 N.3   222  CYS222     -0.1221
     38  CA        74.5510   21.7370  180.6270 C.3   222  CYS222      0.1808
     39  C         75.9570   21.6760  180.0220 C.2   222  CYS222      0.2601
     40  O         76.9050   22.1980  180.5910 O.2   222  CYS222     -0.2717
     41  CB        73.8820   23.0080  180.1020 C.3   222  CYS222      0.0970
     42  SG        72.1590   23.2900  180.6010 S.3   222  CYS222     -0.0800
     43  N         76.0820   21.0390  178.8630 N.am  223  PHE223     -0.1962
     44  CA        77.3730   20.9700  178.1690 C.3   223  PHE223      0.1771
     45  C         77.6070   22.3600  177.5950 C.2   223  PHE223      0.2619
     46  O         78.7350   22.8600  177.5780 O.2   223  PHE223     -0.2715
     47  CB        77.3480   19.9200  177.0350 C.3   223  PHE223      0.0574
     48  CG        77.4430   18.4880  177.5220 C.ar  223  PHE223     -0.0200
     49  CD1       77.1240   17.4290  176.6800 C.ar  223  PHE223     -0.0042
     50  CD2       77.8370   18.2040  178.8420 C.ar  223  PHE223     -0.0042
     51  CE1       77.1930   16.0970  177.1410 C.ar  223  PHE223     -0.0003
     52  CE2       77.9120   16.8780  179.3180 C.ar  223  PHE223     -0.0003
     53  CZ        77.5870   15.8250  178.4700 C.ar  223  PHE223     -0.0000
     54  N         76.5090   22.9730  177.1470 N.am  224  ALA224     -0.1963
     55  CA        76.4970   24.3260  176.5950 C.3   224  ALA224      0.1728
     56  C         75.0920   24.8990  176.8040 C.2   224  ALA224      0.2616
     57  O         74.1410   24.1560  177.1030 O.2   224  ALA224     -0.2715
     58  CB        76.8350   24.3000  175.1110 C.3   224  ALA224      0.0334
     59  N         74.9670   26.2150  176.6440 N.am  225  CYS225     -0.1968
     60  CA        73.6800   26.8840  176.8120 C.3   225  CYS225      0.1712
     61  C         72.9500   27.1530  175.5030 C.2   225  CYS225      0.2296
     62  O         73.5570   27.5840  174.5150 O.2   225  CYS225     -0.2864
     63  CB        73.8700   28.2040  177.5540 C.3   225  CYS225      0.0983
     64  SG        74.3940   28.0140  179.2890 S.3   225  CYS225     -0.0798
     65  N         74.4320   32.1270  179.2060 N.3   229  ASN229     -0.1240
     66  CA        75.0950   31.5730  180.3730 C.3   229  ASN229      0.1653
     67  C         75.1500   32.7010  181.4070 C.2   229  ASN229      0.2266
     68  O         75.7700   33.7430  181.1720 O.2   229  ASN229     -0.2867
     69  CB        76.5200   31.1110  180.0150 C.3   229  ASN229      0.1155
     70  CG        77.2360   30.4250  181.1800 C.2   229  ASN229      0.2627
     71  OD1       76.8140   30.5320  182.3300 O.2   229  ASN229     -0.2716
     72  ND2       78.3350   29.7330  180.8920 N.am  229  ASN229     -0.0877
     73  N         76.3900   33.2110  185.0730 N.3   231  SER231     -0.1202
     74  CA        77.1750   32.6910  186.1960 C.3   231  SER231      0.2020
     75  C         77.0890   31.1720  186.3580 C.2   231  SER231      0.2619
     76  O         77.0190   30.6590  187.4720 O.2   231  SER231     -0.2717
     77  CB        76.7490   33.3570  187.5100 C.3   231  SER231      0.2103
     78  OG        77.0720   34.7390  187.5200 O.3   231  SER231     -0.2182
     79  N         77.0890   30.4500  185.2500 N.am  232  GLY232     -0.1956
     80  CA        77.0260   29.0090  185.3450 C.3   232  GLY232      0.1869
     81  C         75.6670   28.4070  185.0660 C.2   232  GLY232      0.2309
     82  O         75.5600   27.2030  184.8480 O.2   232  GLY232     -0.2863
     83  N         72.3370   28.0970  182.6460 N.3   234  CYS234     -0.1235
     84  CA        71.8260   28.3600  181.2960 C.3   234  CYS234      0.1677
     85  C         70.4190   28.9310  181.3710 C.2   234  CYS234      0.2270
     86  O         69.4740   28.1970  181.6570 O.2   234  CYS234     -0.2867
     87  CB        71.7820   27.0660  180.4790 C.3   234  CYS234      0.0956
     88  SG        73.3880   26.3880  179.9660 S.3   234  CYS234     -0.0801
     89  N         76.6130   35.0660  176.7220 N.3   264  PHE264     -0.1241
     90  CA        76.7970   35.2440  178.1610 C.3   264  PHE264      0.1605
     91  C         75.9810   36.4060  178.7180 C.2   264  PHE264      0.2264
     92  O         75.5160   37.2750  177.9730 O.2   264  PHE264     -0.2867
     93  CB        78.2670   35.5170  178.5080 C.3   264  PHE264      0.0534
     94  CG        79.2430   34.6050  177.8340 C.ar  264  PHE264     -0.0203
     95  CD1       79.6290   34.8300  176.5180 C.ar  264  PHE264     -0.0042
     96  CD2       79.8030   33.5300  178.5270 C.ar  264  PHE264     -0.0042
     97  CE1       80.5610   34.0050  175.9010 C.ar  264  PHE264     -0.0003
     98  CE2       80.7360   32.6950  177.9200 C.ar  264  PHE264     -0.0003
     99  CZ        81.1170   32.9330  176.6030 C.ar  264  PHE264     -0.0000
@<TRIPOS>BOND
     1    23    24    2
     2    23    22    1
     3    22    21    1
     4    22    25    1
     5    25    26    1
     6    26    27    1
     7    28    27   ar
     8    27    29   ar
     9    62    61    2
    10    58    55    1
    11    61    60    1
    12    97    95   ar
    13    97    99   ar
    14    95    94   ar
    15    55    56    1
    16    55    54    1
    17    99    98   ar
    18    59    56   am
    19    59    60    1
    20    49    51   ar
    21    49    48   ar
    22    89    90    1
    23    56    57    2
    24    60    63    1
    25    47    48    1
    26    47    44    1
    27    51    53   ar
    28    54    45   am
    29    48    50   ar
    30     1     2    1
    31    63    64    1
    32    46    45    2
    33    45    44    1
    34    94    93    1
    35    94    96   ar
    36    98    96   ar
    37    92    91    2
    38    90    93    1
    39    90    91    1
    40    44    43    1
    41    15    14    2
    42    14    13    1
    43    53    52   ar
    44     5     2    1
    45     5     6    1
    46     2     3    1
    47    50    52   ar
    48    43    39   am
    49    12     3   am
    50    12    13    1
    51     3     4    2
    52    65    66    1
    53    64    88    1
    54    13    16    1
    55    88    87    1
    56     6     7    1
    57    69    66    1
    58    69    70    1
    59    39    40    2
    60    39    38    1
    61    41    42    1
    62    41    38    1
    63    66    67    1
    64    87    84    1
    65    38    37    1
    66    16    17    1
    67    72    70   am
    68     7     8    1
    69    68    67    2
    70    70    71    2
    71    84    85    1
    72    84    83    1
    73    85    86    2
    74    17    18    1
    75     8     9    2
    76     9    10    1
    77     9    11    1
    78    18    19    2
    79    18    20   am
    80    82    81    2
    81    81    80    1
    82    73    74    1
    83    79    80    1
    84    79    75   am
    85    32    33    2
    86    32    31    1
    87    30    31    1
    88    31    34    1
    89    74    75    1
    90    74    77    1
    91    75    76    2
    92    34    36    1
    93    34    35    1
    94    77    78    1
