@<TRIPOS>MOLECULE
tmp/2ai1A00.pdb
 174 165 0 0 0
SMALL
GASTEIGER

@<TRIPOS>ATOM
      1  N         69.3880  -35.5920   96.4830 N.3    30  GLY30      -0.1210
      2  CA        68.9390  -36.8550   97.0420 C.3    30  GLY30       0.1956
      3  C         69.5730  -37.1340   98.3940 C.2    30  GLY30       0.2612
      4  O         70.3000  -36.2980   98.9330 O.2    30  GLY30      -0.2717
      5  N         69.3120  -38.3170   98.9440 N.am   31  SER31      -0.1952
      6  CA        69.8560  -38.6790  100.2470 C.3    31  SER31       0.1924
      7  C         71.3820  -38.7590  100.2540 C.2    31  SER31       0.2314
      8  O         71.9860  -39.4380   99.4200 O.2    31  SER31      -0.2863
      9  CB        69.2670  -40.0150  100.7080 C.3    31  SER31       0.2116
     10  OG        69.5660  -41.0440   99.7830 O.3    31  SER31      -0.2180
     11  N         64.3270  -33.9490   99.8750 N.3    76  ARG76      -0.1245
     12  CA        63.1550  -33.9860   99.0070 C.3    76  ARG76       0.1563
     13  C         62.0350  -34.7660   99.6850 C.2    76  ARG76       0.2260
     14  O         62.1970  -35.2390  100.8130 O.2    76  ARG76      -0.2867
     15  CB        63.5040  -34.6420   97.6660 C.3    76  ARG76       0.0307
     16  CG        64.0440  -36.0680   97.7940 C.3    76  ARG76       0.0489
     17  CD        63.4380  -36.9840   96.7220 C.3    76  ARG76       0.2205
     18  NE        63.7660  -36.5410   95.3670 N.pl3  76  ARG76      -0.0865
     19  CZ        64.9520  -36.7040   94.7910 C.cat  76  ARG76       0.5346
     20  NH1       65.9350  -37.3090   95.4400 N.pl3  76  ARG76       0.1354
     21  NH2       65.1620  -36.2380   93.5660 N.pl3  76  ARG76       0.1354
     22  N         58.9530  -37.9290   99.5240 N.3    78  HIS78      -0.1241
     23  CA        58.7530  -39.2660   98.9590 C.3    78  HIS78       0.1621
     24  C         57.3370  -39.8230   99.1110 C.2    78  HIS78       0.2264
     25  O         56.6290  -39.5300  100.0740 O.2    78  HIS78      -0.2867
     26  CB        59.7130  -40.2770   99.6000 C.3    78  HIS78       0.0745
     27  CG        61.1550  -39.8780   99.5400 C.ar   78  HIS78       0.0817
     28  ND1       61.7720  -39.1580  100.5400 N.ar   78  HIS78      -0.2268
     29  CD2       62.1010  -40.0950   98.5940 C.ar   78  HIS78       0.1154
     30  CE1       63.0370  -38.9480  100.2140 C.ar   78  HIS78       0.1986
     31  NE2       63.2620  -39.5070   99.0380 N.ar   78  HIS78      -0.2212
     32  N         56.6260  -42.8470   99.8170 N.3    80  TYR80      -0.1241
     33  CA        56.5730  -43.7340  100.9790 C.3    80  TYR80       0.1605
     34  C         56.3250  -43.0110  102.3000 C.2    80  TYR80       0.2264
     35  O         56.0660  -43.6460  103.3160 O.2    80  TYR80      -0.2867
     36  CB        57.8310  -44.6180  101.0630 C.3    80  TYR80       0.0534
     37  CG        59.1520  -43.8860  101.2570 C.ar   80  TYR80      -0.0201
     38  CD1       59.4260  -43.1870  102.4360 C.ar   80  TYR80      -0.0009
     39  CD2       60.1410  -43.9230  100.2720 C.ar   80  TYR80      -0.0009
     40  CE1       60.6590  -42.5420  102.6320 C.ar   80  TYR80       0.0417
     41  CE2       61.3760  -43.2830  100.4570 C.ar   80  TYR80       0.0417
     42  CZ        61.6250  -42.5980  101.6370 C.ar   80  TYR80       0.1957
     43  OH        62.8450  -41.9790  101.8190 O.3    80  TYR80      -0.2866
     44  N         69.8370  -38.6720   92.9920 N.3   107  ASN107     -0.1225
     45  CA        69.2870  -39.6340   93.9390 C.3   107  ASN107      0.1785
     46  C         70.2770  -40.7330   94.2660 C.2   107  ASN107      0.2597
     47  O         71.3020  -40.8870   93.5960 O.2   107  ASN107     -0.2718
     48  CB        68.0080  -40.2660   93.3790 C.3   107  ASN107      0.1169
     49  CG        68.2690  -41.1180   92.1390 C.2   107  ASN107      0.2627
     50  OD1       69.0810  -42.0430   92.1670 O.2   107  ASN107     -0.2716
     51  ND2       67.5710  -40.8120   91.0490 N.am  107  ASN107     -0.0877
     52  N         69.9640  -41.4840   95.3180 N.am  108  ALA108     -0.1966
     53  CA        70.7690  -42.6160   95.7440 C.3   108  ALA108      0.1728
     54  C         69.9870  -43.8220   95.2270 C.2   108  ALA108      0.2616
     55  O         68.7690  -43.8880   95.3980 O.2   108  ALA108     -0.2715
     56  CB        70.8620  -42.6580   97.2650 C.3   108  ALA108      0.0334
     57  N         70.6710  -44.7700   94.5990 N.am  109  ALA109     -0.1963
     58  CA        69.9840  -45.9310   94.0460 C.3   109  ALA109      0.1728
     59  C         70.7430  -47.2390   94.2030 C.2   109  ALA109      0.2616
     60  O         71.9430  -47.2490   94.4920 O.2   109  ALA109     -0.2715
     61  CB        69.6830  -45.6830   92.5650 C.3   109  ALA109      0.0334
     62  N         70.0220  -48.3430   94.0200 N.am  110  GLY110     -0.1955
     63  CA        70.6200  -49.6630   94.0960 C.3   110  GLY110      0.1869
     64  C         70.9660  -50.1040   92.6810 C.2   110  GLY110      0.2309
     65  O         70.1740  -49.9140   91.7540 O.2   110  GLY110     -0.2863
     66  N         66.6560  -45.7470   84.9330 N.3   184  TYR184     -0.1241
     67  CA        66.2870  -45.7260   86.3470 C.3   184  TYR184      0.1605
     68  C         64.8290  -46.1330   86.5150 C.2   184  TYR184      0.2264
     69  O         63.9490  -45.5840   85.8580 O.2   184  TYR184     -0.2867
     70  CB        66.5060  -44.3170   86.9190 C.3   184  TYR184      0.0534
     71  CG        66.0010  -44.0840   88.3380 C.ar  184  TYR184     -0.0201
     72  CD1       64.6700  -43.7350   88.5890 C.ar  184  TYR184     -0.0009
     73  CD2       66.8680  -44.1710   89.4270 C.ar  184  TYR184     -0.0009
     74  CE1       64.2200  -43.4680   89.9030 C.ar  184  TYR184      0.0417
     75  CE2       66.4300  -43.9160   90.7350 C.ar  184  TYR184      0.0417
     76  CZ        65.1130  -43.5640   90.9660 C.ar  184  TYR184      0.1957
     77  OH        64.7030  -43.2920   92.2600 O.3   184  TYR184     -0.2866
     78  N         60.0860  -47.3480   92.2170 N.3   187  LEU187     -0.1245
     79  CA        59.0250  -48.0960   92.8730 C.3   187  LEU187      0.1561
     80  C         58.7390  -47.3940   94.2060 C.2   187  LEU187      0.2260
     81  O         59.5560  -46.5940   94.6910 O.2   187  LEU187     -0.2867
     82  CB        59.3990  -49.5700   93.0690 C.3   187  LEU187      0.0270
     83  CG        60.7750  -49.9990   93.5610 C.3   187  LEU187      0.0019
     84  CD1       61.0080  -49.4820   94.9660 C.3   187  LEU187      0.0001
     85  CD2       60.8550  -51.5220   93.5160 C.3   187  LEU187      0.0001
     86  N         63.2780  -52.6670  101.0110 N.3   192  PHE192     -0.1227
     87  CA        64.1980  -53.0050   99.9310 C.3   192  PHE192      0.1736
     88  C         63.6490  -54.2320   99.2130 C.2   192  PHE192      0.2595
     89  O         62.9380  -55.0530   99.8120 O.2   192  PHE192     -0.2718
     90  CB        65.5990  -53.3130  100.4700 C.3   192  PHE192      0.0547
     91  CG        66.3470  -52.1040  100.9290 C.ar  192  PHE192     -0.0202
     92  CD1       66.5450  -51.8650  102.2850 C.ar  192  PHE192     -0.0042
     93  CD2       66.8660  -51.2000  100.0050 C.ar  192  PHE192     -0.0042
     94  CE1       67.2550  -50.7410  102.7130 C.ar  192  PHE192     -0.0003
     95  CE2       67.5750  -50.0760  100.4250 C.ar  192  PHE192     -0.0003
     96  CZ        67.7700  -49.8490  101.7840 C.ar  192  PHE192     -0.0000
     97  N         63.9970  -54.3570   97.9370 N.am  193  GLU193     -0.1979
     98  CA        63.5270  -55.4530   97.0920 C.3   193  GLU193      0.1602
     99  C         64.0060  -56.8550   97.4570 C.2   193  GLU193      0.2287
    100  O         65.0870  -57.0340   98.0210 O.2   193  GLU193     -0.2864
    101  CB        63.9150  -55.1810   95.6330 C.3   193  GLU193      0.0415
    102  CG        63.3530  -53.8910   95.0530 C.3   193  GLU193      0.1163
    103  CD        64.0580  -52.6460   95.5610 C.2   193  GLU193      0.3649
    104  OE1       63.3790  -51.6100   95.7030 O.co2 193  GLU193     -0.2457
    105  OE2       65.2860  -52.6900   95.8080 O.co2 193  GLU193     -0.2457
    106  N         67.6740  -48.9390   90.6320 N.3   209  VAL209     -0.1231
    107  CA        66.3550  -48.8760   91.2810 C.3   209  VAL209      0.1692
    108  C         66.3230  -47.8780   92.4500 C.2   209  VAL209      0.2593
    109  O         67.2320  -47.8640   93.2870 O.2   209  VAL209     -0.2718
    110  CB        65.9270  -50.2860   91.7860 C.3   209  VAL209      0.0266
    111  CG1       66.9870  -50.8570   92.7200 C.3   209  VAL209      0.0020
    112  CG2       64.5650  -50.2120   92.4890 C.3   209  VAL209      0.0020
    113  N         65.2800  -47.0450   92.4930 N.am  210  GLY210     -0.1942
    114  CA        65.1440  -46.0450   93.5470 C.3   210  GLY210      0.2014
    115  C         63.7010  -45.7430   93.9450 C.2   210  GLY210      0.2639
    116  O         62.7680  -46.3580   93.4250 O.2   210  GLY210     -0.2714
    117  N         63.5110  -44.7860   94.8490 N.am  211  MET211     -0.1963
    118  CA        62.1710  -44.4390   95.3320 C.3   211  MET211      0.1736
    119  C         61.7240  -42.9900   95.1100 C.2   211  MET211      0.2617
    120  O         60.8190  -42.5110   95.8000 O.2   211  MET211     -0.2715
    121  CB        62.0730  -44.7580   96.8350 C.3   211  MET211      0.0427
    122  CG        62.4080  -46.2040   97.2030 C.3   211  MET211      0.0599
    123  SD        62.4390  -46.4790   99.0100 S.3   211  MET211     -0.1393
    124  CE        63.1700  -48.1040   99.1070 C.3   211  MET211      0.0692
    125  N         62.3280  -42.2950   94.1470 N.am  212  SER212     -0.1950
    126  CA        61.9780  -40.8960   93.9020 C.3   212  SER212      0.1924
    127  C         62.2420  -40.4750   92.4570 C.2   212  SER212      0.2314
    128  O         62.2350  -41.2970   91.5430 O.2   212  SER212     -0.2863
    129  CB        62.8360  -40.0110   94.7950 C.3   212  SER212      0.2116
    130  OG        64.1860  -40.0620   94.3490 O.3   212  SER212     -0.2180
    131  N         74.6520  -46.6640   95.4320 N.3   234  THR234     -0.1203
    132  CA        75.0300  -46.8770   96.8270 C.3   234  THR234      0.1994
    133  C         75.1780  -48.3300   97.2640 C.2   234  THR234      0.2617
    134  O         75.6860  -48.6030   98.3540 O.2   234  THR234     -0.2717
    135  CB        74.0440  -46.1700   97.7860 C.3   234  THR234      0.1784
    136  OG1       72.7040  -46.5990   97.5130 O.3   234  THR234     -0.2211
    137  CG2       74.1350  -44.6630   97.6130 C.3   234  THR234      0.0376
    138  N         74.7360  -49.2590   96.4250 N.am  235  ASN235     -0.1974
    139  CA        74.8500  -50.6780   96.7430 C.3   235  ASN235      0.1688
    140  C         74.4590  -51.5570   95.5640 C.2   235  ASN235      0.2292
    141  O         73.6450  -51.1660   94.7290 O.2   235  ASN235     -0.2864
    142  CB        73.9720  -51.0390   97.9490 C.3   235  ASN235      0.1181
    143  CG        72.4820  -50.8980   97.6600 C.2   235  ASN235      0.2629
    144  OD1       71.9610  -49.7870   97.5460 O.2   235  ASN235     -0.2716
    145  ND2       71.7930  -52.0300   97.5350 N.am  235  ASN235     -0.0877
    146  N         72.4550  -54.5310   94.4750 N.3   237  VAL237     -0.1245
    147  CA        71.3350  -55.3320   94.9680 C.3   237  VAL237      0.1561
    148  C         71.5950  -56.8370   94.8950 C.2   237  VAL237      0.2260
    149  O         72.2440  -57.3210   93.9690 O.2   237  VAL237     -0.2867
    150  CB        70.0350  -55.0220   94.1830 C.3   237  VAL237      0.0252
    151  CG1       69.8000  -53.5220   94.1440 C.3   237  VAL237      0.0019
    152  CG2       70.1200  -55.5970   92.7770 C.3   237  VAL237      0.0019
    153  N         70.7350  -55.5430  101.8300 N.3   247  ALA247     -0.1245
    154  CA        70.6360  -54.0880  101.7930 C.3   247  ALA247      0.1562
    155  C         70.3060  -53.4510  103.1420 C.2   247  ALA247      0.2260
    156  O         69.4870  -53.9660  103.9060 O.2   247  ALA247     -0.2867
    157  CB        69.5970  -53.6710  100.7580 C.3   247  ALA247      0.0290
    158  N         70.2000  -49.2500  105.0420 N.3   249  HIS249     -0.1241
    159  CA        70.3260  -47.8060  104.8740 C.3   249  HIS249      0.1621
    160  C         71.6580  -47.2320  105.3630 C.2   249  HIS249      0.2264
    161  O         72.0960  -46.1830  104.8910 O.2   249  HIS249     -0.2867
    162  CB        69.1690  -47.1020  105.5820 C.3   249  HIS249      0.0745
    163  CG        69.0810  -45.6400  105.2840 C.ar  249  HIS249      0.0817
    164  ND1       68.9880  -45.1500  103.9990 N.ar  249  HIS249     -0.2268
    165  CD2       69.0640  -44.5610  106.1010 C.ar  249  HIS249      0.1154
    166  CE1       68.9170  -43.8310  104.0380 C.ar  249  HIS249      0.1986
    167  NE2       68.9610  -43.4490  105.3020 N.ar  249  HIS249     -0.2212
    168  N         74.1720  -47.2450  102.6550 N.3   252  VAL252     -0.1245
    169  CA        73.7340  -46.3030  101.6280 C.3   252  VAL252      0.1561
    170  C         74.2110  -44.9000  101.9890 C.2   252  VAL252      0.2260
    171  O         74.6570  -44.1400  101.1250 O.2   252  VAL252     -0.2867
    172  CB        72.1920  -46.2970  101.4900 C.3   252  VAL252      0.0252
    173  CG1       71.7600  -45.2570  100.4600 C.3   252  VAL252      0.0019
    174  CG2       71.7040  -47.6820  101.0820 C.3   252  VAL252      0.0019
@<TRIPOS>BOND
     1    66    67    1
     2    69    68    2
     3    67    68    1
     4    67    70    1
     5    70    71    1
     6    71    72   ar
     7    71    73   ar
     8    72    74   ar
     9    73    75   ar
    10    74    76   ar
    11   106   107    1
    12    75    76   ar
    13    76    77    1
    14    51    49   am
    15   107   110    1
    16   107   108    1
    17   128   127    2
    18    65    64    2
    19   110   112    1
    20   110   111    1
    21    49    50    2
    22    49    48    1
    23    78    79    1
    24   108   113   am
    25   108   109    2
    26   127   126    1
    27   113   114    1
    28    61    58    1
    29    64    63    1
    30   152   150    1
    31    79    82    1
    32    79    80    1
    33    44    45    1
    34    82    83    1
    35    48    45    1
    36   116   115    2
    37    85    83    1
    38   114   115    1
    39    83    84    1
    40    21    19    1
    41    47    46    2
    42   126   125    1
    43   126   129    1
    44    45    46    1
    45   115   117   am
    46   149   148    2
    47    62    63    1
    48    62    59   am
    49    58    59    1
    50    58    57    1
    51   151   150    1
    52   125   119   am
    53   150   147    1
    54    59    60    2
    55    80    81    2
    56    46    52   am
    57   130   129    1
    58   146   147    1
    59    57    54   am
    60   141   140    2
    61    19    18    2
    62    19    20    1
    63   117   118    1
    64   148   147    1
    65   102   103    1
    66   102   101    1
    67   119   118    1
    68   119   120    2
    69    54    55    2
    70    54    53    1
    71    52    53    1
    72   118   121    1
    73    18    17    1
    74   131   132    1
    75   103   104   ar
    76   103   105   ar
    77   140   139    1
    78   101    98    1
    79    53    56    1
    80   138   139    1
    81   138   133   am
    82     1     2    1
    83    17    16    1
    84   139   142    1
    85   132   133    1
    86   132   135    1
    87   121   122    1
    88     2     3    1
    89    98    99    1
    90    98    97    1
    91   122   123    1
    92   133   134    2
    93    99   100    2
    94   136   135    1
    95   145   143   am
    96   144   143    2
    97   137   135    1
    98   143   142    1
    99    15    16    1
   100    15    12    1
   101    97    88   am
   102     3     4    2
   103     3     5   am
   104    29    31   ar
   105    29    27   ar
   106     5     6    1
   107    23    24    1
   108    23    22    1
   109    23    26    1
   110    12    13    1
   111    12    11    1
   112   123   124    1
   113    31    30   ar
   114    24    25    2
   115    88    89    2
   116    88    87    1
   117     8     7    2
   118    27    26    1
   119    27    28   ar
   120    13    14    2
   121    10     9    1
   122    32    33    1
   123    87    90    1
   124    87    86    1
   125    93    95   ar
   126    93    91   ar
   127    30    28   ar
   128     6     7    1
   129     6     9    1
   130    39    41   ar
   131    39    37   ar
   132    95    96   ar
   133    41    42   ar
   134   173   172    1
   135    90    91    1
   136   157   154    1
   137    91    92   ar
   138    33    36    1
   139    33    34    1
   140    36    37    1
   141   174   172    1
   142   171   170    2
   143    37    38   ar
   144   172   169    1
   145   169   170    1
   146   169   168    1
   147    42    43    1
   148    42    40   ar
   149    96    94   ar
   150   154   153    1
   151   154   155    1
   152    92    94   ar
   153    34    35    2
   154    38    40   ar
   155   155   156    2
   156   164   166   ar
   157   164   163   ar
   158   166   167   ar
   159   159   158    1
   160   159   160    1
   161   159   162    1
   162   161   160    2
   163   163   162    1
   164   163   165   ar
   165   167   165   ar
