@<TRIPOS>MOLECULE
tmp/2ai2A00.pdb
 173 165 0 0 0
SMALL
GASTEIGER

@<TRIPOS>ATOM
      1  N         69.7670  -35.5810   95.5600 N.3    30  GLY30      -0.1210
      2  CA        69.4420  -36.9100   96.0290 C.3    30  GLY30       0.1956
      3  C         70.4830  -37.3750   97.0280 C.2    30  GLY30       0.2612
      4  O         71.3210  -36.5880   97.4720 O.2    30  GLY30      -0.2717
      5  N         70.4360  -38.6560   97.3720 N.am   31  SER31      -0.1952
      6  CA        71.3680  -39.2310   98.3320 C.3    31  SER31       0.1924
      7  C         72.8260  -38.9790   97.9560 C.2    31  SER31       0.2314
      8  O         73.2350  -39.2040   96.8150 O.2    31  SER31      -0.2863
      9  CB        71.1270  -40.7380   98.4520 C.3    31  SER31       0.2116
     10  OG        69.7670  -41.0180   98.7460 O.3    31  SER31      -0.2180
     11  N         64.3190  -34.1960   99.3550 N.3    76  ARG76      -0.1245
     12  CA        63.1760  -34.2630   98.4460 C.3    76  ARG76       0.1563
     13  C         62.0250  -35.0310   99.0900 C.2    76  ARG76       0.2260
     14  O         62.1310  -35.4700  100.2330 O.2    76  ARG76      -0.2867
     15  CB        63.5760  -34.9180   97.1160 C.3    76  ARG76       0.0307
     16  CG        64.0700  -36.3580   97.2160 C.3    76  ARG76       0.0489
     17  CD        63.4800  -37.2230   96.1050 C.3    76  ARG76       0.2205
     18  NE        63.8660  -36.7980   94.7560 N.pl3  76  ARG76      -0.0865
     19  CZ        65.0590  -37.0180   94.2080 C.cat  76  ARG76       0.5346
     20  NH1       66.0020  -37.6600   94.8840 N.pl3  76  ARG76       0.1354
     21  NH2       65.3040  -36.6040   92.9720 N.pl3  76  ARG76       0.1354
     22  N         59.0490  -38.2210   98.9040 N.3    78  HIS78      -0.1241
     23  CA        58.8680  -39.5500   98.3180 C.3    78  HIS78       0.1621
     24  C         57.4680  -40.1140   98.4630 C.2    78  HIS78       0.2264
     25  O         56.8110  -39.9190   99.4830 O.2    78  HIS78      -0.2867
     26  CB        59.8290  -40.5650   98.9440 C.3    78  HIS78       0.0745
     27  CG        61.2670  -40.1630   98.8870 C.ar   78  HIS78       0.0817
     28  ND1       61.8450  -39.3410   99.8290 N.ar   78  HIS78      -0.2268
     29  CD2       62.2460  -40.4720   98.0030 C.ar   78  HIS78       0.1154
     30  CE1       63.1200  -39.1610   99.5300 C.ar   78  HIS78       0.1986
     31  NE2       63.3890  -39.8370   98.4260 N.ar   78  HIS78      -0.2212
     32  N         56.6900  -43.0870   99.0350 N.3    80  TYR80      -0.1241
     33  CA        56.6220  -44.0190  100.1640 C.3    80  TYR80       0.1605
     34  C         56.3610  -43.3750  101.5200 C.2    80  TYR80       0.2264
     35  O         56.0170  -44.0690  102.4810 O.2    80  TYR80      -0.2867
     36  CB        57.8760  -44.9090  100.2370 C.3    80  TYR80       0.0534
     37  CG        59.2070  -44.2030  100.4100 C.ar   80  TYR80      -0.0201
     38  CD1       59.5010  -43.4750  101.5660 C.ar   80  TYR80      -0.0009
     39  CD2       60.1900  -44.2930   99.4220 C.ar   80  TYR80      -0.0009
     40  CE1       60.7500  -42.8540  101.7300 C.ar   80  TYR80       0.0417
     41  CE2       61.4280  -43.6830   99.5730 C.ar   80  TYR80       0.0417
     42  CZ        61.7050  -42.9660  100.7260 C.ar   80  TYR80       0.1957
     43  OH        62.9440  -42.3760  100.8670 O.3    80  TYR80      -0.2866
     44  N         69.8690  -39.0420   92.4260 N.3   107  ASN107     -0.1225
     45  CA        69.3570  -40.0090   93.3850 C.3   107  ASN107      0.1785
     46  C         70.3780  -41.1050   93.6700 C.2   107  ASN107      0.2597
     47  O         71.4870  -41.1150   93.1200 O.2   107  ASN107     -0.2718
     48  CB        68.0620  -40.6460   92.8560 C.3   107  ASN107      0.1169
     49  CG        68.2770  -41.4490   91.5750 C.2   107  ASN107      0.2627
     50  OD1       69.1170  -42.3500   91.5220 O.2   107  ASN107     -0.2716
     51  ND2       67.5110  -41.1250   90.5390 N.am  107  ASN107     -0.0877
     52  N         69.9960  -42.0000   94.5730 N.am  108  ALA108     -0.1966
     53  CA        70.7930  -43.1590   94.9390 C.3   108  ALA108      0.1728
     54  C         69.9680  -44.2970   94.3650 C.2   108  ALA108      0.2616
     55  O         68.7350  -44.2480   94.4100 O.2   108  ALA108     -0.2715
     56  CB        70.8870  -43.2930   96.4550 C.3   108  ALA108      0.0334
     57  N         70.6280  -45.3130   93.8220 N.am  109  ALA109     -0.1963
     58  CA        69.9080  -46.4340   93.2370 C.3   109  ALA109      0.1728
     59  C         70.6500  -47.7550   93.3490 C.2   109  ALA109      0.2616
     60  O         71.8770  -47.7940   93.4850 O.2   109  ALA109     -0.2715
     61  CB        69.6100  -46.1420   91.7660 C.3   109  ALA109      0.0334
     62  N         69.8850  -48.8390   93.2830 N.am  110  GLY110     -0.1955
     63  CA        70.4670  -50.1640   93.3340 C.3   110  GLY110      0.1869
     64  C         70.8640  -50.5390   91.9190 C.2   110  GLY110      0.2309
     65  O         70.1250  -50.2660   90.9670 O.2   110  GLY110     -0.2863
     66  N         66.7890  -45.9330   84.2550 N.3   184  TYR184     -0.1241
     67  CA        66.4090  -45.9420   85.6670 C.3   184  TYR184      0.1605
     68  C         64.9420  -46.3290   85.7750 C.2   184  TYR184      0.2264
     69  O         64.1020  -45.7710   85.0690 O.2   184  TYR184     -0.2867
     70  CB        66.6030  -44.5420   86.2610 C.3   184  TYR184      0.0534
     71  CG        66.0760  -44.3330   87.6740 C.ar  184  TYR184     -0.0201
     72  CD1       66.8860  -44.5700   88.7870 C.ar  184  TYR184     -0.0009
     73  CD2       64.7930  -43.8270   87.8920 C.ar  184  TYR184     -0.0009
     74  CE1       66.4310  -44.2920   90.0840 C.ar  184  TYR184      0.0417
     75  CE2       64.3280  -43.5520   89.1850 C.ar  184  TYR184      0.0417
     76  CZ        65.1540  -43.7840   90.2730 C.ar  184  TYR184      0.1957
     77  OH        64.6990  -43.4990   91.5410 O.3   184  TYR184     -0.2866
     78  N         58.5110  -48.6730  100.3890 N.3   190  PRO190     -0.2116
     79  CA        59.8830  -48.5170  100.8830 C.3   190  PRO190      0.1372
     80  C         60.7460  -49.7640  101.0800 C.2   190  PRO190      0.2244
     81  O         61.9220  -49.6350  101.4010 O.2   190  PRO190     -0.2868
     82  CB        59.6710  -47.7800  102.1940 C.3   190  PRO190      0.0268
     83  CG        58.4620  -48.4810  102.7280 C.3   190  PRO190      0.0207
     84  CD        57.5500  -48.5750  101.5050 C.3   190  PRO190      0.0892
     85  N         63.0450  -53.0610  100.1410 N.3   192  PHE192     -0.1227
     86  CA        63.9940  -53.3590   99.0740 C.3   192  PHE192      0.1736
     87  C         63.4160  -54.5540   98.3050 C.2   192  PHE192      0.2595
     88  O         62.6300  -55.3310   98.8500 O.2   192  PHE192     -0.2718
     89  CB        65.3740  -53.6930   99.6590 C.3   192  PHE192      0.0547
     90  CG        66.1440  -52.4850  100.1410 C.ar  192  PHE192     -0.0202
     91  CD1       66.5690  -51.5140   99.2410 C.ar  192  PHE192     -0.0042
     92  CD2       66.4670  -52.3330  101.4900 C.ar  192  PHE192     -0.0042
     93  CE1       67.3100  -50.4070   99.6700 C.ar  192  PHE192     -0.0003
     94  CE2       67.2060  -51.2280  101.9350 C.ar  192  PHE192     -0.0003
     95  CZ        67.6320  -50.2620  101.0220 C.ar  192  PHE192     -0.0000
     96  N         63.8100  -54.6990   97.0450 N.am  193  GLU193     -0.1979
     97  CA        63.2900  -55.7540   96.1750 C.3   193  GLU193      0.1602
     98  C         63.7050  -57.1880   96.4800 C.2   193  GLU193      0.2287
     99  O         64.7860  -57.4380   97.0100 O.2   193  GLU193     -0.2864
    100  CB        63.6760  -55.4610   94.7210 C.3   193  GLU193      0.0415
    101  CG        63.2340  -54.1030   94.1790 C.3   193  GLU193      0.1163
    102  CD        63.9410  -52.9320   94.8450 C.2   193  GLU193      0.3649
    103  OE1       65.1490  -53.0470   95.1380 O.co2 193  GLU193     -0.2457
    104  OE2       63.2960  -51.8870   95.0600 O.co2 193  GLU193     -0.2457
    105  N         67.5930  -49.2260   89.8620 N.3   209  VAL209     -0.1231
    106  CA        66.2570  -49.1220   90.4600 C.3   209  VAL209      0.1692
    107  C         66.2440  -48.1930   91.6780 C.2   209  VAL209      0.2593
    108  O         67.1010  -48.3000   92.5620 O.2   209  VAL209     -0.2718
    109  CB        65.7150  -50.5300   90.8710 C.3   209  VAL209      0.0266
    110  CG1       66.6800  -51.2090   91.8300 C.3   209  VAL209      0.0020
    111  CG2       64.3350  -50.4040   91.5110 C.3   209  VAL209      0.0020
    112  N         65.2680  -47.2840   91.7100 N.am  210  GLY210     -0.1942
    113  CA        65.1370  -46.3360   92.8040 C.3   210  GLY210      0.2014
    114  C         63.6900  -45.9960   93.1250 C.2   210  GLY210      0.2639
    115  O         62.7730  -46.4910   92.4660 O.2   210  GLY210     -0.2714
    116  N         63.4830  -45.1260   94.1100 N.am  211  MET211     -0.1963
    117  CA        62.1360  -44.7620   94.5490 C.3   211  MET211      0.1736
    118  C         61.7690  -43.2860   94.3860 C.2   211  MET211      0.2617
    119  O         60.9400  -42.7660   95.1400 O.2   211  MET211     -0.2715
    120  CB        61.9670  -45.1500   96.0250 C.3   211  MET211      0.0427
    121  CG        62.2190  -46.6240   96.3280 C.3   211  MET211      0.0599
    122  SD        62.3160  -46.9710   98.1090 S.3   211  MET211     -0.1393
    123  CE        62.8340  -48.6620   98.0840 C.3   211  MET211      0.0692
    124  N         62.3550  -42.6120   93.4010 N.am  212  SER212     -0.1950
    125  CA        62.0730  -41.1900   93.2060 C.3   212  SER212      0.1924
    126  C         62.3470  -40.7410   91.7700 C.2   212  SER212      0.2314
    127  O         62.2930  -41.5350   90.8330 O.2   212  SER212     -0.2863
    128  CB        62.9770  -40.3700   94.1230 C.3   212  SER212      0.2116
    129  OG        64.3120  -40.3790   93.6220 O.3   212  SER212     -0.2180
    130  N         74.5660  -47.1140   94.8990 N.3   234  THR234     -0.1203
    131  CA        74.9110  -47.3580   96.2960 C.3   234  THR234      0.1994
    132  C         75.0090  -48.8300   96.6950 C.2   234  THR234      0.2617
    133  O         75.5420  -49.1580   97.7600 O.2   234  THR234     -0.2717
    134  CB        73.8860  -46.6830   97.2190 C.3   234  THR234      0.1784
    135  OG1       72.5670  -47.1220   96.8600 O.3   234  THR234     -0.2211
    136  CG2       73.9630  -45.1650   97.0810 C.3   234  THR234      0.0376
    137  N         74.4930  -49.7150   95.8500 N.am  235  ASN235     -0.1974
    138  CA        74.5270  -51.1430   96.1440 C.3   235  ASN235      0.1688
    139  C         74.2100  -51.9840   94.9160 C.2   235  ASN235      0.2292
    140  O         73.5340  -51.5270   93.9980 O.2   235  ASN235     -0.2864
    141  CB        73.5190  -51.4710   97.2530 C.3   235  ASN235      0.1181
    142  CG        72.0990  -51.0410   96.9020 C.2   235  ASN235      0.2629
    143  OD1       71.8220  -49.8510   96.7310 O.2   235  ASN235     -0.2716
    144  ND2       71.1940  -52.0100   96.7970 N.am  235  ASN235     -0.0877
    145  N         72.1500  -54.9520   93.6280 N.3   237  VAL237     -0.1245
    146  CA        71.0090  -55.7540   94.0660 C.3   237  VAL237      0.1561
    147  C         71.2660  -57.2600   94.0150 C.2   237  VAL237      0.2260
    148  O         72.0010  -57.7580   93.1510 O.2   237  VAL237     -0.2867
    149  CB        69.7420  -55.4290   93.2410 C.3   237  VAL237      0.0252
    150  CG1       69.4620  -53.9340   93.2920 C.3   237  VAL237      0.0019
    151  CG2       69.9110  -55.9030   91.8130 C.3   237  VAL237      0.0019
    152  N         70.4330  -56.1600  100.8240 N.3   247  ALA247     -0.1245
    153  CA        70.3640  -54.7060  100.8130 C.3   247  ALA247      0.1562
    154  C         70.0610  -54.1850  102.2100 C.2   247  ALA247      0.2260
    155  O         69.2810  -54.7840  102.9470 O.2   247  ALA247     -0.2867
    156  CB        69.2850  -54.2340   99.8370 C.3   247  ALA247      0.0290
    157  N         69.9170  -50.1540  104.2870 N.3   249  HIS249     -0.1241
    158  CA        70.0640  -48.7060  104.2380 C.3   249  HIS249      0.1621
    159  C         71.3250  -48.1470  104.8910 C.2   249  HIS249      0.2264
    160  O         71.8020  -47.0830  104.4980 O.2   249  HIS249     -0.2867
    161  CB        68.8350  -48.0470  104.8620 C.3   249  HIS249      0.0745
    162  CG        68.7570  -46.5710  104.6330 C.ar  249  HIS249      0.0817
    163  ND1       68.7310  -46.0140  103.3720 N.ar  249  HIS249     -0.2268
    164  CD2       68.6780  -45.5360  105.5020 C.ar  249  HIS249      0.1154
    165  CE1       68.6380  -44.7000  103.4740 C.ar  249  HIS249      0.1986
    166  NE2       68.6030  -44.3850  104.7570 N.ar  249  HIS249     -0.2212
    167  N         73.9270  -48.2930  102.3390 N.3   252  VAL252     -0.1245
    168  CA        73.5660  -47.3550  101.2820 C.3   252  VAL252      0.1561
    169  C         73.9870  -45.9390  101.6650 C.2   252  VAL252      0.2260
    170  O         74.5220  -45.1940  100.8420 O.2   252  VAL252     -0.2867
    171  CB        72.0480  -47.3840  101.0130 C.3   252  VAL252      0.0252
    172  CG1       71.6420  -46.2050  100.1420 C.3   252  VAL252      0.0019
    173  CG2       71.6790  -48.6910  100.3340 C.3   252  VAL252      0.0019
@<TRIPOS>BOND
     1    66    67    1
     2    69    68    2
     3    67    68    1
     4    67    70    1
     5    70    71    1
     6    71    73   ar
     7    71    72   ar
     8    73    75   ar
     9    72    74   ar
    10    75    76   ar
    11   105   106    1
    12    74    76   ar
    13    76    77    1
    14   106   109    1
    15   106   107    1
    16    51    49   am
    17   127   126    2
    18   109   111    1
    19   109   110    1
    20    65    64    2
    21    50    49    2
    22    49    48    1
    23   107   112   am
    24   107   108    2
    25   112   113    1
    26    61    58    1
    27   126   125    1
    28   151   149    1
    29    64    63    1
    30    44    45    1
    31   115   114    2
    32   113   114    1
    33    48    45    1
    34    21    19    1
    35    47    46    2
    36   114   116   am
    37   148   147    2
    38   125   124    1
    39   125   128    1
    40    58    59    1
    41    58    57    1
    42   149   150    1
    43   149   146    1
    44    62    63    1
    45    62    59   am
    46    59    60    2
    47    45    46    1
    48   124   118   am
    49   129   128    1
    50   145   146    1
    51    46    52   am
    52    57    54   am
    53   140   139    2
    54   147   146    1
    55   116   117    1
    56   101   100    1
    57   101   102    1
    58    19    18    2
    59    19    20    1
    60    54    55    2
    61    54    53    1
    62   118   117    1
    63   118   119    2
    64   117   120    1
    65    52    53    1
    66   100    97    1
    67    18    17    1
    68   102   104   ar
    69   102   103   ar
    70   130   131    1
    71   139   138    1
    72    53    56    1
    73     1     2    1
    74   137   138    1
    75   137   132   am
    76   120   121    1
    77     2     3    1
    78    17    16    1
    79   138   141    1
    80    97    98    1
    81    97    96    1
    82   131   132    1
    83   131   134    1
    84   121   122    1
    85    98    99    2
    86   132   133    2
    87   143   142    2
    88   144   142   am
    89     8     7    2
    90   135   134    1
    91   142   141    1
    92     3     5   am
    93     3     4    2
    94    96    87   am
    95   136   134    1
    96    15    16    1
    97    15    12    1
    98     5     6    1
    99     7     6    1
   100    29    31   ar
   101    29    27   ar
   102   123   122    1
   103    87    88    2
   104    87    86    1
   105    23    24    1
   106    23    22    1
   107    23    26    1
   108     6     9    1
   109    31    30   ar
   110    12    13    1
   111    12    11    1
   112     9    10    1
   113    24    25    2
   114    27    26    1
   115    27    28   ar
   116    32    33    1
   117    86    89    1
   118    86    85    1
   119    13    14    2
   120    91    93   ar
   121    91    90   ar
   122    39    41   ar
   123    39    37   ar
   124    30    28   ar
   125    41    42   ar
   126    89    90    1
   127    93    95   ar
   128   156   153    1
   129    90    92   ar
   130   172   171    1
   131    33    36    1
   132    33    34    1
   133    36    37    1
   134   173   171    1
   135    78    79    1
   136    78    84    1
   137    37    38   ar
   138    42    43    1
   139    42    40   ar
   140   153   152    1
   141   153   154    1
   142   170   169    2
   143    79    80    1
   144    79    82    1
   145   171   168    1
   146    95    94   ar
   147    80    81    2
   148   168   169    1
   149   168   167    1
   150    92    94   ar
   151    84    83    1
   152    34    35    2
   153    38    40   ar
   154    82    83    1
   155   154   155    2
   156   163   165   ar
   157   163   162   ar
   158   165   166   ar
   159   158   157    1
   160   158   161    1
   161   158   159    1
   162   160   159    2
   163   162   161    1
   164   162   164   ar
   165   166   164   ar
