@<TRIPOS>MOLECULE
tmp/2ai3A00.pdb
 185 177 0 0 0
SMALL
GASTEIGER

@<TRIPOS>ATOM
      1  N         69.4740  -38.3990   98.9590 N.3    31  SER31      -0.1217
      2  CA        70.0120  -38.9510  100.2030 C.3    31  SER31       0.1889
      3  C         71.5350  -38.8910  100.2790 C.2    31  SER31       0.2288
      4  O         72.2310  -39.4680   99.4420 O.2    31  SER31      -0.2866
      5  CB        69.5580  -40.4060  100.3820 C.3    31  SER31       0.2089
      6  OG        68.1620  -40.4920  100.6170 O.3    31  SER31      -0.2183
      7  N         64.4690  -34.0570  100.0080 N.3    76  ARG76      -0.1245
      8  CA        63.2880  -34.1060   99.1500 C.3    76  ARG76       0.1563
      9  C         62.1440  -34.8390   99.8430 C.2    76  ARG76       0.2260
     10  O         62.2520  -35.1930  101.0160 O.2    76  ARG76      -0.2867
     11  CB        63.6140  -34.7800   97.8050 C.3    76  ARG76       0.0307
     12  CG        64.2070  -36.1800   97.9110 C.3    76  ARG76       0.0489
     13  CD        63.7050  -37.0860   96.7830 C.3    76  ARG76       0.2205
     14  NE        64.0270  -36.6090   95.4330 N.pl3  76  ARG76      -0.0865
     15  CZ        65.2020  -36.7650   94.8260 C.cat  76  ARG76       0.5346
     16  NH1       66.2070  -37.3880   95.4370 N.pl3  76  ARG76       0.1354
     17  NH2       65.3660  -36.3130   93.5860 N.pl3  76  ARG76       0.1354
     18  N         59.1200  -38.0470   99.6860 N.3    78  HIS78      -0.1241
     19  CA        58.9100  -39.3680   99.0940 C.3    78  HIS78       0.1621
     20  C         57.4990  -39.9160   99.2540 C.2    78  HIS78       0.2264
     21  O         56.8220  -39.6700  100.2510 O.2    78  HIS78      -0.2867
     22  CB        59.8690  -40.3980   99.7010 C.3    78  HIS78       0.0745
     23  CG        61.3160  -40.0280   99.5960 C.ar   78  HIS78       0.0817
     24  ND1       61.9230  -39.1430  100.4610 N.ar   78  HIS78      -0.2268
     25  CD2       62.2780  -40.4300   98.7310 C.ar   78  HIS78       0.1154
     26  CE1       63.1970  -39.0140  100.1330 C.ar   78  HIS78       0.1986
     27  NE2       63.4380  -39.7850   99.0870 N.ar   78  HIS78      -0.2212
     28  N         56.6530  -42.8990   99.9420 N.3    80  TYR80      -0.1241
     29  CA        56.5510  -43.7910  101.1020 C.3    80  TYR80       0.1605
     30  C         56.2960  -43.0820  102.4260 C.2    80  TYR80       0.2264
     31  O         55.9800  -43.7250  103.4300 O.2    80  TYR80      -0.2867
     32  CB        57.7930  -44.6920  101.2190 C.3    80  TYR80       0.0534
     33  CG        59.1050  -43.9730  101.4380 C.ar   80  TYR80      -0.0201
     34  CD1       59.3740  -43.3070  102.6350 C.ar   80  TYR80      -0.0009
     35  CD2       60.0860  -43.9670  100.4470 C.ar   80  TYR80      -0.0009
     36  CE1       60.5870  -42.6540  102.8350 C.ar   80  TYR80       0.0417
     37  CE2       61.2970  -43.3190  100.6370 C.ar   80  TYR80       0.0417
     38  CZ        61.5390  -42.6650  101.8310 C.ar   80  TYR80       0.1957
     39  OH        62.7410  -42.0190  102.0110 O.3    80  TYR80      -0.2866
     40  N         70.0760  -38.5970   92.9190 N.3   107  ASN107     -0.1225
     41  CA        69.5890  -39.5680   93.8890 C.3   107  ASN107      0.1785
     42  C         70.6090  -40.6650   94.1510 C.2   107  ASN107      0.2597
     43  O         71.6530  -40.7310   93.5000 O.2   107  ASN107     -0.2718
     44  CB        68.2620  -40.1990   93.4270 C.3   107  ASN107      0.1169
     45  CG        68.4020  -41.0400   92.1580 C.2   107  ASN107      0.2627
     46  OD1       69.2820  -41.8920   92.0470 O.2   107  ASN107     -0.2716
     47  ND2       67.5050  -40.8160   91.2050 N.am  107  ASN107     -0.0877
     48  N         70.3050  -41.5000   95.1370 N.am  108  ALA108     -0.1966
     49  CA        71.1410  -42.6330   95.4940 C.3   108  ALA108      0.1728
     50  C         70.3450  -43.8390   95.0150 C.2   108  ALA108      0.2616
     51  O         69.1320  -43.8990   95.2250 O.2   108  ALA108     -0.2715
     52  CB        71.3400  -42.6940   97.0070 C.3   108  ALA108      0.0334
     53  N         71.0100  -44.7940   94.3740 N.am  109  ALA109     -0.1963
     54  CA        70.3040  -45.9630   93.8650 C.3   109  ALA109      0.1728
     55  C         71.0700  -47.2770   93.9530 C.2   109  ALA109      0.2616
     56  O         72.2940  -47.3000   94.1120 O.2   109  ALA109     -0.2715
     57  CB        69.8870  -45.7120   92.4200 C.3   109  ALA109      0.0334
     58  N         70.3230  -48.3720   93.8440 N.am  110  GLY110     -0.1955
     59  CA        70.9100  -49.6950   93.8710 C.3   110  GLY110      0.1869
     60  C         71.2460  -50.0940   92.4450 C.2   110  GLY110      0.2309
     61  O         70.4480  -49.8720   91.5310 O.2   110  GLY110     -0.2863
     62  N         66.6910  -45.6400   84.9030 N.3   184  TYR184     -0.1241
     63  CA        66.3350  -45.6290   86.3210 C.3   184  TYR184      0.1605
     64  C         64.8850  -46.0690   86.4820 C.2   184  TYR184      0.2264
     65  O         64.0010  -45.5770   85.7780 O.2   184  TYR184     -0.2867
     66  CB        66.4940  -44.2100   86.8840 C.3   184  TYR184      0.0534
     67  CG        66.0650  -44.0400   88.3340 C.ar  184  TYR184     -0.0201
     68  CD1       66.9680  -44.2350   89.3770 C.ar  184  TYR184     -0.0009
     69  CD2       64.7580  -43.6620   88.6550 C.ar  184  TYR184     -0.0009
     70  CE1       66.5870  -44.0520   90.7100 C.ar  184  TYR184      0.0417
     71  CE2       64.3650  -43.4770   89.9870 C.ar  184  TYR184      0.0417
     72  CZ        65.2860  -43.6700   91.0030 C.ar  184  TYR184      0.1957
     73  OH        64.9150  -43.4620   92.3110 O.3   184  TYR184     -0.2866
     74  N         60.2320  -47.3540   92.3410 N.3   187  LEU187     -0.1245
     75  CA        59.2110  -48.1420   93.0200 C.3   187  LEU187      0.1561
     76  C         58.8990  -47.3980   94.3170 C.2   187  LEU187      0.2260
     77  O         59.6880  -46.5650   94.7770 O.2   187  LEU187     -0.2867
     78  CB        59.6660  -49.5870   93.2720 C.3   187  LEU187      0.0270
     79  CG        61.0840  -49.9390   93.6990 C.3   187  LEU187      0.0019
     80  CD1       61.3620  -49.4120   95.0910 C.3   187  LEU187      0.0001
     81  CD2       61.2300  -51.4570   93.6570 C.3   187  LEU187      0.0001
     82  N         58.6130  -48.3250  101.4340 N.3   190  PRO190     -0.2116
     83  CA        59.9630  -48.0780  101.9530 C.3   190  PRO190      0.1372
     84  C         60.8530  -49.3030  102.1690 C.2   190  PRO190      0.2244
     85  O         62.0450  -49.1550  102.4440 O.2   190  PRO190     -0.2868
     86  CB        59.6840  -47.3510  103.2610 C.3   190  PRO190      0.0268
     87  CG        58.5000  -48.1360  103.7860 C.3   190  PRO190      0.0207
     88  CD        57.6240  -48.3070  102.5310 C.3   190  PRO190      0.0892
     89  N         63.1350  -52.6330  101.2740 N.3   192  PHE192     -0.1227
     90  CA        64.0440  -52.9240  100.1730 C.3   192  PHE192      0.1736
     91  C         63.5410  -54.1590   99.4330 C.2   192  PHE192      0.2595
     92  O         62.7780  -54.9510   99.9900 O.2   192  PHE192     -0.2718
     93  CB        65.4690  -53.1270  100.6950 C.3   192  PHE192      0.0547
     94  CG        66.1500  -51.8470  101.0780 C.ar  192  PHE192     -0.0202
     95  CD1       66.4060  -50.8700  100.1190 C.ar  192  PHE192     -0.0042
     96  CD2       66.5250  -51.6070  102.3960 C.ar  192  PHE192     -0.0042
     97  CE1       67.0260  -49.6710  100.4680 C.ar  192  PHE192     -0.0003
     98  CE2       67.1470  -50.4100  102.7570 C.ar  192  PHE192     -0.0003
     99  CZ        67.3960  -49.4410  101.7910 C.ar  192  PHE192     -0.0000
    100  N         63.9690  -54.3190   98.1820 N.am  193  GLU193     -0.1979
    101  CA        63.5170  -55.4230   97.3270 C.3   193  GLU193      0.1602
    102  C         63.9860  -56.8350   97.6670 C.2   193  GLU193      0.2287
    103  O         65.0470  -57.0310   98.2630 O.2   193  GLU193     -0.2864
    104  CB        63.9060  -55.1500   95.8690 C.3   193  GLU193      0.0415
    105  CG        63.3820  -53.8540   95.2610 C.3   193  GLU193      0.1163
    106  CD        64.0300  -52.6060   95.8420 C.2   193  GLU193      0.3649
    107  OE1       65.2570  -52.6060   96.0800 O.co2 193  GLU193     -0.2457
    108  OE2       63.3090  -51.6070   96.0440 O.co2 193  GLU193     -0.2457
    109  N         67.8600  -48.8280   90.5970 N.3   209  VAL209     -0.1231
    110  CA        66.5430  -48.7540   91.2430 C.3   209  VAL209      0.1692
    111  C         66.5150  -47.8450   92.4720 C.2   209  VAL209      0.2593
    112  O         67.4210  -47.8800   93.3120 O.2   209  VAL209     -0.2718
    113  CB        66.0460  -50.1730   91.6380 C.3   209  VAL209      0.0266
    114  CG1       67.0740  -50.8590   92.5110 C.3   209  VAL209      0.0020
    115  CG2       64.6980  -50.0940   92.3740 C.3   209  VAL209      0.0020
    116  N         65.4670  -47.0290   92.5680 N.am  210  GLY210     -0.1942
    117  CA        65.3300  -46.1240   93.7000 C.3   210  GLY210      0.2014
    118  C         63.8790  -45.8260   94.0520 C.2   210  GLY210      0.2639
    119  O         62.9660  -46.4080   93.4580 O.2   210  GLY210     -0.2714
    120  N         63.6590  -44.9110   94.9990 N.am  211  MET211     -0.1963
    121  CA        62.3030  -44.5660   95.4360 C.3   211  MET211      0.1736
    122  C         61.8830  -43.1070   95.1890 C.2   211  MET211      0.2617
    123  O         60.9940  -42.5910   95.8760 O.2   211  MET211     -0.2715
    124  CB        62.1630  -44.8780   96.9340 C.3   211  MET211      0.0427
    125  CG        62.6730  -46.2630   97.3440 C.3   211  MET211      0.0599
    126  SD        62.6340  -46.5350   99.1450 S.3   211  MET211     -0.1393
    127  CE        63.2440  -48.2210   99.2500 C.3   211  MET211      0.0692
    128  N         62.4830  -42.4450   94.2030 N.am  212  SER212     -0.1950
    129  CA        62.1440  -41.0440   93.9490 C.3   212  SER212      0.1924
    130  C         62.3990  -40.6190   92.5100 C.2   212  SER212      0.2314
    131  O         62.3800  -41.4410   91.5890 O.2   212  SER212     -0.2863
    132  CB        62.9860  -40.1530   94.8670 C.3   212  SER212      0.2116
    133  OG        64.3460  -40.1700   94.4550 O.3   212  SER212     -0.2180
    134  N         75.1720  -46.6200   95.1770 N.3   234  THR234     -0.1203
    135  CA        75.6620  -46.8490   96.5310 C.3   234  THR234      0.1994
    136  C         75.8830  -48.3120   96.8850 C.2   234  THR234      0.2617
    137  O         76.5310  -48.6170   97.8880 O.2   234  THR234     -0.2717
    138  CB        74.7050  -46.2310   97.5750 C.3   234  THR234      0.1784
    139  OG1       73.4030  -46.8120   97.4390 O.3   234  THR234     -0.2211
    140  CG2       74.6030  -44.7280   97.3740 C.3   234  THR234      0.0376
    141  N         75.3570  -49.2180   96.0660 N.am  235  ASN235     -0.1974
    142  CA        75.5180  -50.6410   96.3360 C.3   235  ASN235      0.1688
    143  C         75.0690  -51.5160   95.1740 C.2   235  ASN235      0.2292
    144  O         74.2170  -51.1220   94.3810 O.2   235  ASN235     -0.2864
    145  CB        74.7260  -51.0160   97.5930 C.3   235  ASN235      0.1181
    146  CG        73.2240  -50.9360   97.3820 C.2   235  ASN235      0.2629
    147  OD1       72.6100  -51.8630   96.8570 O.2   235  ASN235     -0.2716
    148  ND2       72.6290  -49.8190   97.7800 N.am  235  ASN235     -0.0877
    149  N         73.0650  -54.6050   94.0420 N.3   237  VAL237     -0.1245
    150  CA        71.9950  -55.4610   94.5430 C.3   237  VAL237      0.1561
    151  C         72.2990  -56.9320   94.2660 C.2   237  VAL237      0.2260
    152  O         72.7840  -57.2810   93.1880 O.2   237  VAL237     -0.2867
    153  CB        70.6240  -55.0950   93.9040 C.3   237  VAL237      0.0252
    154  CG1       70.3440  -53.6120   94.0870 C.3   237  VAL237      0.0019
    155  CG2       70.6080  -55.4660   92.4310 C.3   237  VAL237      0.0019
    156  N         70.8960  -54.9660  102.6760 N.3   243  ALA243     -0.1231
    157  CA        70.9360  -53.5320  102.4200 C.3   243  ALA243      0.1694
    158  C         70.3080  -52.7420  103.5640 C.2   243  ALA243      0.2592
    159  O         69.2440  -53.1010  104.0700 O.2   243  ALA243     -0.2718
    160  CB        70.2180  -53.2170  101.1130 C.3   243  ALA243      0.0304
    161  N         70.9770  -51.6670  103.9670 N.am  244  ASN244     -0.1960
    162  CA        70.4910  -50.8150  105.0450 C.3   244  ASN244      0.1819
    163  C         70.5720  -49.3460  104.6370 C.2   244  ASN244      0.2621
    164  O         70.9880  -49.0270  103.5220 O.2   244  ASN244     -0.2715
    165  CB        71.3040  -51.0590  106.3210 C.3   244  ASN244      0.1195
    166  CG        72.7920  -50.8550  106.1160 C.2   244  ASN244      0.2630
    167  OD1       73.2460  -49.7450  105.8400 O.2   244  ASN244     -0.2716
    168  ND2       73.5600  -51.9310  106.2490 N.am  244  ASN244     -0.0877
    169  N         70.1760  -48.4550  105.5410 N.am  245  HIS245     -0.1973
    170  CA        70.1890  -47.0250  105.2560 C.3   245  HIS245      0.1656
    171  C         71.5550  -46.3720  105.4610 C.2   245  HIS245      0.2291
    172  O         71.9190  -45.4460  104.7360 O.2   245  HIS245     -0.2864
    173  CB        69.1450  -46.3130  106.1200 C.3   245  HIS245      0.0771
    174  CG        69.0020  -44.8550  105.8140 C.ar  245  HIS245      0.0820
    175  ND1       68.6890  -44.3860  104.5560 N.ar  245  HIS245     -0.2267
    176  CD2       69.1280  -43.7610  106.6020 C.ar  245  HIS245      0.1154
    177  CE1       68.6280  -43.0670  104.5820 C.ar  245  HIS245      0.1986
    178  NE2       68.8910  -42.6620  105.8120 N.ar  245  HIS245     -0.2212
    179  N         73.9670  -46.4360  102.3560 N.3   248  VAL248     -0.1245
    180  CA        73.7810  -45.4050  101.3420 C.3   248  VAL248      0.1561
    181  C         74.2130  -44.0580  101.9080 C.2   248  VAL248      0.2260
    182  O         74.6290  -43.1610  101.1710 O.2   248  VAL248     -0.2867
    183  CB        72.2990  -45.3050  100.9140 C.3   248  VAL248      0.0252
    184  CG1       72.1190  -44.1730   99.9170 C.3   248  VAL248      0.0019
    185  CG2       71.8420  -46.6220  100.3100 C.3   248  VAL248      0.0019
@<TRIPOS>BOND
     1    62    63    1
     2    65    64    2
     3    63    64    1
     4    63    66    1
     5    66    67    1
     6    67    69   ar
     7    67    68   ar
     8    69    71   ar
     9    68    70   ar
    10    71    72   ar
    11   109   110    1
    12    70    72   ar
    13    72    73    1
    14    47    45   am
    15   110   113    1
    16   110   111    1
    17    61    60    2
    18   131   130    2
    19   113   115    1
    20   113   114    1
    21    46    45    2
    22    45    44    1
    23    74    75    1
    24    57    54    1
    25   155   153    1
    26    60    59    1
    27   111   116   am
    28   111   112    2
    29   130   129    1
    30   116   117    1
    31    40    41    1
    32    75    78    1
    33    75    76    1
    34   152   151    2
    35    78    79    1
    36    44    41    1
    37   119   118    2
    38    43    42    2
    39    17    15    1
    40    81    79    1
    41    79    80    1
    42   117   118    1
    43    58    59    1
    44    58    55   am
    45    54    55    1
    46    54    53    1
    47    41    42    1
    48   153   154    1
    49   153   150    1
    50   129   128    1
    51   129   132    1
    52    55    56    2
    53   149   150    1
    54   118   120   am
    55    42    48   am
    56   128   122   am
    57   151   150    1
    58    76    77    2
    59    53    50   am
    60   144   143    2
    61   133   132    1
    62    15    14    2
    63    15    16    1
    64   120   121    1
    65    50    51    2
    66    50    49    1
    67    48    49    1
    68   143   142    1
    69   134   135    1
    70   122   121    1
    71   122   123    2
    72   105   106    1
    73   105   104    1
    74    14    13    1
    75   121   124    1
    76    49    52    1
    77   106   108   ar
    78   106   107   ar
    79   104   101    1
    80   141   142    1
    81   141   136   am
    82   142   145    1
    83   135   136    1
    84   135   138    1
    85    13    12    1
    86   147   146    2
    87   136   137    2
    88   124   125    1
    89   101   102    1
    90   101   100    1
    91   125   126    1
    92   140   138    1
    93   146   145    1
    94   146   148   am
    95   139   138    1
    96   102   103    2
    97    11    12    1
    98    11     8    1
    99   100    91   am
   100    25    27   ar
   101    25    23   ar
   102     1     2    1
   103    27    26   ar
   104    19    20    1
   105    19    18    1
   106    19    22    1
   107   126   127    1
   108     8     9    1
   109     8     7    1
   110    20    21    2
   111    91    92    2
   112    91    90    1
   113     4     3    2
   114    23    22    1
   115    23    24   ar
   116     9    10    2
   117   184   183    1
   118    28    29    1
   119    95    97   ar
   120    95    94   ar
   121    26    24   ar
   122    90    93    1
   123    90    89    1
   124     2     3    1
   125     2     5    1
   126   185   183    1
   127     5     6    1
   128    35    37   ar
   129    35    33   ar
   130    97    99   ar
   131    37    38   ar
   132    93    94    1
   133   183   180    1
   134    94    96   ar
   135    29    32    1
   136    29    30    1
   137   160   157    1
   138   182   181    2
   139    32    33    1
   140   180   181    1
   141   180   179    1
   142    82    83    1
   143    82    88    1
   144    33    34   ar
   145    99    98   ar
   146    38    39    1
   147    38    36   ar
   148    83    84    1
   149    83    86    1
   150    84    85    2
   151    96    98   ar
   152   157   156    1
   153   157   158    1
   154    30    31    2
   155    88    87    1
   156    34    36   ar
   157    86    87    1
   158   164   163    2
   159   158   161   am
   160   158   159    2
   161   161   162    1
   162   175   177   ar
   163   175   174   ar
   164   177   178   ar
   165   163   162    1
   166   163   169   am
   167   172   171    2
   168   162   165    1
   169   170   171    1
   170   170   169    1
   171   170   173    1
   172   178   176   ar
   173   174   173    1
   174   174   176   ar
   175   167   166    2
   176   166   168   am
   177   166   165    1
