@<TRIPOS>MOLECULE
tmp/2ai7A00.pdb
 116 110 0 0 0
SMALL
GASTEIGER

@<TRIPOS>ATOM
      1  N         24.3390   -8.1980   -1.2870 N.3    68  GLY68      -0.1210
      2  CA        23.4330   -7.2350   -0.6850 C.3    68  GLY68       0.1956
      3  C         24.0840   -6.4440    0.4400 C.2    68  GLY68       0.2612
      4  O         24.8320   -6.9980    1.2440 O.2    68  GLY68      -0.2717
      5  N         23.8030   -5.1450    0.5020 N.am   69  GLY69      -0.1942
      6  CA        24.3760   -4.3190    1.5530 C.3    69  GLY69       0.2014
      7  C         23.4630   -3.1970    2.0210 C.2    69  GLY69       0.2639
      8  O         22.6390   -2.6950    1.2530 O.2    69  GLY69      -0.2714
      9  N         23.6010   -2.8150    3.2900 N.am   70  VAL70      -0.1963
     10  CA        22.8090   -1.7370    3.8670 C.3    70  VAL70       0.1727
     11  C         23.7280   -0.5870    4.2800 C.2    70  VAL70       0.2616
     12  O         23.2780    0.4180    4.8240 O.2    70  VAL70      -0.2715
     13  CB        22.0120   -2.2140    5.1090 C.3    70  VAL70       0.0290
     14  CG1       21.0180   -3.3110    4.7000 C.3    70  VAL70       0.0023
     15  CG2       22.9630   -2.7220    6.1820 C.3    70  VAL70       0.0023
     16  N         25.0180   -0.7430    4.0090 N.am   71  GLY71      -0.1955
     17  CA        25.9700    0.2950    4.3530 C.3    71  GLY71       0.1869
     18  C         27.2430    0.1660    3.5430 C.2    71  GLY71       0.2309
     19  O         27.5840   -0.9250    3.0900 O.2    71  GLY71      -0.2863
     20  N         36.3510    1.2020    1.6980 N.3    76  GLN76      -0.1245
     21  CA        36.0730   -0.0550    1.0050 C.3    76  GLN76       0.1566
     22  C         36.2500    0.0560   -0.5100 C.2    76  GLN76       0.2260
     23  O         36.3150   -0.9570   -1.2080 O.2    76  GLN76      -0.2867
     24  CB        34.6570   -0.5370    1.3220 C.3    76  GLN76       0.0367
     25  CG        34.4710   -0.9740    2.7680 C.3    76  GLN76       0.0905
     26  CD        33.0690   -1.4670    3.0590 C.2    76  GLN76       0.2608
     27  OE1       32.1250   -0.6770    3.1640 O.2    76  GLN76      -0.2717
     28  NE2       32.9210   -2.7830    3.1800 N.am   76  GLN76      -0.0878
     29  N         23.5970   -7.7840   16.8890 N.3   115  LEU115     -0.1245
     30  CA        22.6050   -8.5250   16.1250 C.3   115  LEU115      0.1561
     31  C         22.7060   -9.9950   16.5140 C.2   115  LEU115      0.2260
     32  O         23.8040  -10.5330   16.6540 O.2   115  LEU115     -0.2867
     33  CB        22.8590   -8.3740   14.6250 C.3   115  LEU115      0.0270
     34  CG        22.7820   -6.9580   14.0500 C.3   115  LEU115      0.0019
     35  CD1       23.1120   -7.0060   12.5720 C.3   115  LEU115      0.0001
     36  CD2       21.3970   -6.3830   14.2670 C.3   115  LEU115      0.0001
     37  N         22.0990  -12.4430   14.7440 N.3   117  GLU117     -0.1245
     38  CA        22.6630  -13.1660   13.6110 C.3   117  GLU117      0.1567
     39  C         24.1420  -12.8530   13.4040 C.2   117  GLU117      0.2260
     40  O         24.8190  -13.5060   12.6100 O.2   117  GLU117     -0.2867
     41  CB        21.8950  -12.8190   12.3350 C.3   117  GLU117      0.0388
     42  CG        22.0910  -11.3810   11.8710 C.3   117  GLU117      0.1160
     43  CD        22.5010  -11.2860   10.4110 C.2   117  GLU117      0.3649
     44  OE1       22.8030  -10.1630    9.9470 O.co2 117  GLU117     -0.2457
     45  OE2       22.5220  -12.3320    9.7260 O.co2 117  GLU117     -0.2457
     46  N         27.3900  -10.3630   12.2700 N.3   119  GLU119     -0.1231
     47  CA        27.6120   -9.4550   11.1470 C.3   119  GLU119      0.1699
     48  C         28.4900  -10.0130   10.0270 C.2   119  GLU119      0.2593
     49  O         29.2510  -10.9640   10.2220 O.2   119  GLU119     -0.2718
     50  CB        28.2430   -8.1490   11.6440 C.3   119  GLU119      0.0402
     51  CG        27.3450   -7.2970   12.5290 C.3   119  GLU119      0.1161
     52  CD        28.0030   -5.9760   12.9250 C.2   119  GLU119      0.3649
     53  OE1       28.9300   -5.5260   12.2100 O.co2 119  GLU119     -0.2457
     54  OE2       27.5780   -5.3790   13.9390 O.co2 119  GLU119     -0.2457
     55  N         28.3730   -9.3890    8.8580 N.am  120  GLY120     -0.1942
     56  CA        29.1640   -9.7560    7.6970 C.3   120  GLY120      0.2014
     57  C         29.7260   -8.4600    7.1270 C.2   120  GLY120      0.2639
     58  O         29.3430   -7.3780    7.5760 O.2   120  GLY120     -0.2714
     59  N         30.6280   -8.5520    6.1550 N.am  121  CYS121     -0.1953
     60  CA        31.2230   -7.3620    5.5550 C.3   121  CYS121      0.1843
     61  C         31.5620   -7.5920    4.0890 C.2   121  CYS121      0.2625
     62  O         32.1330   -8.6250    3.7260 O.2   121  CYS121     -0.2714
     63  CB        32.4890   -6.9610    6.3210 C.3   121  CYS121      0.0997
     64  SG        33.2830   -5.4360    5.7640 S.3   121  CYS121     -0.0797
     65  N         31.2090   -6.6200    3.2530 N.am  122  LEU122     -0.1977
     66  CA        31.4600   -6.6980    1.8190 C.3   122  LEU122      0.1596
     67  C         32.9350   -6.8900    1.5040 C.2   122  LEU122      0.2287
     68  O         33.2860   -7.4140    0.4470 O.2   122  LEU122     -0.2864
     69  CB        30.9520   -5.4300    1.1290 C.3   122  LEU122      0.0297
     70  CG        29.4470   -5.1880    1.2520 C.3   122  LEU122      0.0022
     71  CD1       29.0980   -3.8030    0.7160 C.3   122  LEU122      0.0001
     72  CD2       28.6950   -6.2790    0.4990 C.3   122  LEU122      0.0001
     73  N         23.4270    0.0080   14.8150 N.3   160  ILE160     -0.1231
     74  CA        24.4490   -0.9810   14.5040 C.3   160  ILE160      0.1692
     75  C         25.1050   -0.6940   13.1530 C.2   160  ILE160      0.2591
     76  O         26.3330   -0.6750   13.0370 O.2   160  ILE160     -0.2718
     77  CB        23.8420   -2.4060   14.4710 C.3   160  ILE160      0.0266
     78  CG1       23.2960   -2.7740   15.8510 C.3   160  ILE160      0.0019
     79  CG2       24.8940   -3.4160   14.0180 C.3   160  ILE160      0.0020
     80  CD1       24.3490   -2.7720   16.9500 C.3   160  ILE160      0.0001
     81  N         24.2780   -0.4660   12.1350 N.am  161  VAL161     -0.1980
     82  CA        24.7770   -0.2070   10.7840 C.3   161  VAL161      0.1595
     83  C         25.6910    1.0160   10.6870 C.2   161  VAL161      0.2287
     84  O         26.7570    0.9490   10.0830 O.2   161  VAL161     -0.2864
     85  CB        23.6030   -0.0520    9.7910 C.3   161  VAL161      0.0276
     86  CG1       24.1190    0.3600    8.4160 C.3   161  VAL161      0.0022
     87  CG2       22.8500   -1.3690    9.6900 C.3   161  VAL161      0.0022
     88  N         29.0320    0.3160   12.2340 N.3   164  HIS164     -0.1226
     89  CA        29.8300   -0.5530   11.3720 C.3   164  HIS164      0.1752
     90  C         30.5640    0.2940   10.3210 C.2   164  HIS164      0.2595
     91  O         31.7530    0.0990   10.0850 O.2   164  HIS164     -0.2718
     92  CB        28.9130   -1.5810   10.7000 C.3   164  HIS164      0.0759
     93  CG        29.6180   -2.5240    9.7730 C.ar  164  HIS164      0.0818
     94  ND1       29.5800   -3.8910    9.9390 N.ar  164  HIS164     -0.2268
     95  CD2       30.3200   -2.3040    8.6360 C.ar  164  HIS164      0.1154
     96  CE1       30.2260   -4.4730    8.9440 C.ar  164  HIS164      0.1986
     97  NE2       30.6840   -3.5320    8.1390 N.ar  164  HIS164     -0.2212
     98  N         29.8690    1.2430    9.6960 N.am  165  GLU165     -0.1979
     99  CA        30.5190    2.0860    8.6850 C.3   165  GLU165      0.1602
    100  C         31.5380    3.0560    9.2800 C.2   165  GLU165      0.2287
    101  O         32.6100    3.2850    8.7000 O.2   165  GLU165     -0.2864
    102  CB        29.4900    2.8870    7.8840 C.3   165  GLU165      0.0415
    103  CG        28.4420    2.0630    7.1670 C.3   165  GLU165      0.1163
    104  CD        29.0070    0.8230    6.4880 C.2   165  GLU165      0.3649
    105  OE1       30.1140    0.8850    5.9140 O.co2 165  GLU165     -0.2457
    106  OE2       28.3190   -0.2150    6.5220 O.co2 165  GLU165     -0.2457
    107  N         34.7620    1.5120    9.7650 N.3   168  HIS168     -0.1241
    108  CA        35.5580    1.4220    8.5470 C.3   168  HIS168      0.1621
    109  C         36.4510    2.6350    8.3670 C.2   168  HIS168      0.2264
    110  O         37.6290    2.4940    8.0500 O.2   168  HIS168     -0.2867
    111  CB        34.6700    1.2650    7.3020 C.3   168  HIS168      0.0745
    112  CG        34.2810   -0.1510    7.0070 C.ar  168  HIS168      0.0817
    113  ND1       35.1970   -1.1800    6.9640 N.ar  168  HIS168     -0.2268
    114  CD2       33.0790   -0.7070    6.7240 C.ar  168  HIS168      0.1154
    115  CE1       34.5770   -2.3090    6.6690 C.ar  168  HIS168      0.1986
    116  NE2       33.2910   -2.0500    6.5180 N.ar  168  HIS168     -0.2212
@<TRIPOS>BOND
     1     1     2    1
     2    23    22    2
     3     2     3    1
     4    22    21    1
     5     3     5   am
     6     3     4    2
     7    68    67    2
     8    72    70    1
     9     5     6    1
    10    71    70    1
    11    21    24    1
    12    21    20    1
    13    69    70    1
    14    69    66    1
    15     8     7    2
    16    24    25    1
    17    67    66    1
    18     6     7    1
    19    66    65    1
    20     7     9   am
    21    25    26    1
    22    26    27    2
    23    26    28   am
    24    19    18    2
    25    65    61   am
    26     9    10    1
    27    18    17    1
    28    62    61    2
    29    10    11    1
    30    10    13    1
    31    16    11   am
    32    16    17    1
    33    61    60    1
    34    11    12    2
    35    14    13    1
    36    13    15    1
    37    60    59    1
    38    60    63    1
    39    64    63    1
    40   105   104   ar
    41    59    57   am
    42   104   106   ar
    43   104   103    1
    44   116   115   ar
    45   116   114   ar
    46   115   113   ar
    47   114   112   ar
    48   113   112   ar
    49   112   111    1
    50    57    58    2
    51    57    56    1
    52   103   102    1
    53   111   108    1
    54    56    55    1
    55   102    99    1
    56   110   109    2
    57    97    95   ar
    58    97    96   ar
    59   109   108    1
    60    86    85    1
    61   108   107    1
    62    95    93   ar
    63    99   100    1
    64    99    98    1
    65   101   100    2
    66    55    48   am
    67    96    94   ar
    68    87    85    1
    69    98    90   am
    70    45    43   ar
    71    93    94   ar
    72    93    92    1
    73    85    82    1
    74    44    43   ar
    75    48    49    2
    76    48    47    1
    77    84    83    2
    78    91    90    2
    79    90    89    1
    80    43    42    1
    81    83    82    1
    82    92    89    1
    83    82    81    1
    84    47    50    1
    85    47    46    1
    86    89    88    1
    87    50    51    1
    88    42    41    1
    89    81    75   am
    90    53    52   ar
    91    41    38    1
    92    51    52    1
    93    35    34    1
    94    40    39    2
    95    52    54   ar
    96    76    75    2
    97    75    74    1
    98    39    38    1
    99    38    37    1
   100    79    77    1
   101    34    36    1
   102    34    33    1
   103    77    74    1
   104    77    78    1
   105    74    73    1
   106    33    30    1
   107    78    80    1
   108    30    31    1
   109    30    29    1
   110    31    32    2
