@<TRIPOS>MOLECULE
tmp/2ai8B00.pdb
 130 123 0 0 0
SMALL
GASTEIGER

@<TRIPOS>ATOM
      1  N        -10.4130   -0.5950   39.4560 N.3    43  GLY43      -0.1210
      2  CA       -10.1980   -1.7940   38.6640 C.3    43  GLY43       0.1956
      3  C         -9.3240   -2.7750   39.4210 C.2    43  GLY43       0.2612
      4  O         -8.7760   -2.4300   40.4670 O.2    43  GLY43      -0.2717
      5  N         -9.1860   -3.9950   38.9070 N.am   44  ILE44      -0.1965
      6  CA        -8.3600   -4.9990   39.5710 C.3    44  ILE44       0.1727
      7  C         -7.1370   -5.3960   38.7480 C.2    44  ILE44       0.2617
      8  O         -6.3520   -6.2560   39.1530 O.2    44  ILE44      -0.2715
      9  CB        -9.1760   -6.2680   39.9090 C.3    44  ILE44       0.0290
     10  CG1       -9.7730   -6.8670   38.6350 C.3    44  ILE44       0.0022
     11  CG2      -10.2730   -5.9250   40.9090 C.3    44  ILE44       0.0023
     12  CD1      -10.5360   -8.1550   38.8760 C.3    44  ILE44       0.0001
     13  N         -6.9830   -4.7550   37.5910 N.am   45  GLY45      -0.1940
     14  CA        -5.8490   -5.0220   36.7260 C.3    45  GLY45       0.2014
     15  C         -5.6150   -3.8440   35.7960 C.2    45  GLY45       0.2638
     16  O         -6.5440   -3.0990   35.4900 O.2    45  GLY45      -0.2714
     17  N         -4.3750   -3.6630   35.3550 N.am   46  LEU46      -0.1977
     18  CA        -4.0410   -2.5730   34.4460 C.3    46  LEU46       0.1596
     19  C         -2.7240   -2.8780   33.7450 C.2    46  LEU46       0.2287
     20  O         -1.7840   -3.3720   34.3630 O.2    46  LEU46      -0.2864
     21  CB        -3.9180   -1.2470   35.2070 C.3    46  LEU46       0.0297
     22  CG        -3.7860    0.0000   34.3250 C.3    46  LEU46       0.0022
     23  CD1       -5.1000    0.2500   33.5980 C.3    46  LEU46       0.0001
     24  CD2       -3.4270    1.2070   35.1830 C.3    46  LEU46       0.0001
     25  N         -2.1740    0.7670   28.4710 N.3    50  GLN50      -0.1245
     26  CA        -3.3940    1.5350   28.6950 C.3    50  GLN50       0.1566
     27  C         -3.1690    2.9620   29.1650 C.2    50  GLN50       0.2260
     28  O         -4.0520    3.8100   29.0170 O.2    50  GLN50      -0.2867
     29  CB        -4.2850    0.8230   29.7040 C.3    50  GLN50       0.0367
     30  CG        -4.8890   -0.4610   29.2040 C.3    50  GLN50       0.0905
     31  CD        -5.6980   -1.1480   30.2800 C.2    50  GLN50       0.2608
     32  OE1       -5.1470   -1.8220   31.1470 O.2    50  GLN50      -0.2717
     33  NE2       -7.0100   -0.9620   30.2430 N.am   50  GLN50      -0.0878
     34  N        -15.9630  -15.1650   30.7370 N.3    86  ILE86      -0.1245
     35  CA       -16.9010  -14.3670   31.5110 C.3    86  ILE86       0.1561
     36  C        -17.1370  -13.1170   30.6750 C.2    86  ILE86       0.2260
     37  O        -16.4440  -12.8980   29.6750 O.2    86  ILE86      -0.2867
     38  CB       -16.3150  -13.9300   32.8770 C.3    86  ILE86       0.0252
     39  CG1      -15.0580  -13.0830   32.6560 C.3    86  ILE86       0.0019
     40  CG2      -16.0160  -15.1510   33.7400 C.3    86  ILE86       0.0019
     41  CD1      -14.3850  -12.6050   33.9410 C.3    86  ILE86       0.0001
     42  N        -16.3020   -9.8360   30.0600 N.3    88  GLU88      -0.1231
     43  CA       -15.2330   -8.9330   30.4460 C.3    88  GLU88       0.1699
     44  C        -15.5430   -7.4860   30.1180 C.2    88  GLU88       0.2593
     45  O        -16.3290   -7.1860   29.2220 O.2    88  GLU88      -0.2718
     46  CB       -13.9340   -9.3210   29.7370 C.3    88  GLU88       0.0402
     47  CG       -13.2790  -10.5870   30.2560 C.3    88  GLU88       0.1161
     48  CD       -12.0300  -10.9480   29.4720 C.2    88  GLU88       0.3649
     49  OE1      -11.2910  -10.0260   29.0630 O.co2  88  GLU88      -0.2457
     50  OE2      -11.7810  -12.1560   29.2690 O.co2  88  GLU88      -0.2457
     51  N        -14.9140   -6.5990   30.8770 N.am   89  GLY89      -0.1942
     52  CA       -15.0470   -5.1760   30.6550 C.3    89  GLY89       0.2014
     53  C        -13.6140   -4.7020   30.4990 C.2    89  GLY89       0.2639
     54  O        -12.6870   -5.5080   30.6060 O.2    89  GLY89      -0.2714
     55  N        -13.4150   -3.4140   30.2370 N.am   90  CYS90      -0.1953
     56  CA       -12.0670   -2.8750   30.0870 C.3    90  CYS90       0.1843
     57  C        -12.1140   -1.3740   30.3430 C.2    90  CYS90       0.2625
     58  O        -13.0430   -0.7000   29.9040 O.2    90  CYS90      -0.2714
     59  CB       -11.5300   -3.1460   28.6740 C.3    90  CYS90       0.0997
     60  SG        -9.8240   -2.5820   28.3880 S.3    90  CYS90      -0.0797
     61  N        -11.1210   -0.8550   31.0580 N.am   91  LEU91      -0.1977
     62  CA       -11.0850    0.5740   31.3490 C.3    91  LEU91       0.1596
     63  C        -10.8610    1.3850   30.0790 C.2    91  LEU91       0.2287
     64  O        -11.1650    2.5810   30.0360 O.2    91  LEU91      -0.2864
     65  CB        -9.9900    0.8820   32.3740 C.3    91  LEU91       0.0297
     66  CG       -10.2710    0.3860   33.7960 C.3    91  LEU91       0.0022
     67  CD1       -9.0280    0.5480   34.6520 C.3    91  LEU91       0.0001
     68  CD2      -11.4370    1.1650   34.3930 C.3    91  LEU91       0.0001
     69  N        -19.2640   -4.4940   27.8900 N.3    97  ARG97      -0.1245
     70  CA       -18.8600   -5.8110   28.3720 C.3    97  ARG97       0.1563
     71  C        -19.2730   -6.8980   27.3900 C.2    97  ARG97       0.2260
     72  O        -20.2980   -6.7810   26.7180 O.2    97  ARG97      -0.2867
     73  CB       -19.4790   -6.0960   29.7490 C.3    97  ARG97       0.0307
     74  CG       -19.0550   -5.1050   30.8320 C.3    97  ARG97       0.0489
     75  CD       -19.6400   -5.4780   32.1860 C.3    97  ARG97       0.2205
     76  NE       -18.9400   -6.5980   32.8080 N.pl3  97  ARG97      -0.0865
     77  CZ       -17.7640   -6.4860   33.4180 C.cat  97  ARG97       0.5346
     78  NH1      -17.1810   -7.5520   33.9620 N.pl3  97  ARG97       0.1354
     79  NH2      -17.1760   -5.3020   33.4940 N.pl3  97  ARG97       0.1354
     80  N        -10.8060  -16.2670   37.9780 N.3   125  LEU125     -0.1245
     81  CA       -10.7330  -14.8860   37.5170 C.3   125  LEU125      0.1561
     82  C         -9.3150  -14.3860   37.2730 C.2   125  LEU125      0.2260
     83  O         -9.0670  -13.6560   36.3150 O.2   125  LEU125     -0.2867
     84  CB       -11.4290  -13.9600   38.5140 C.3   125  LEU125      0.0270
     85  CG       -11.5550  -12.4980   38.0790 C.3   125  LEU125      0.0019
     86  CD1      -12.3480  -12.4320   36.7830 C.3   125  LEU125      0.0001
     87  CD2      -12.2530  -11.6900   39.1700 C.3   125  LEU125      0.0001
     88  N         -7.9800  -15.3210   33.8780 N.3   128  ILE128     -0.1231
     89  CA        -8.6360  -14.5060   32.8600 C.3   128  ILE128      0.1692
     90  C         -8.0210  -13.1080   32.8370 C.2   128  ILE128      0.2592
     91  O         -7.6710  -12.5940   31.7750 O.2   128  ILE128     -0.2718
     92  CB       -10.1610  -14.4240   33.1280 C.3   128  ILE128      0.0266
     93  CG1      -10.7840  -15.8140   32.9440 C.3   128  ILE128      0.0019
     94  CG2      -10.8160  -13.4110   32.1940 C.3   128  ILE128      0.0020
     95  CD1      -12.2690  -15.8940   33.2720 C.3   128  ILE128      0.0001
     96  N         -7.8880  -12.5020   34.0130 N.am  129  CYS129     -0.1970
     97  CA        -7.3140  -11.1650   34.1220 C.3   129  CYS129      0.1712
     98  C         -5.9120  -11.0990   33.5160 C.2   129  CYS129      0.2296
     99  O         -5.6080  -10.1980   32.7340 O.2   129  CYS129     -0.2864
    100  CB        -7.2650  -10.7320   35.5910 C.3   129  CYS129      0.0983
    101  SG        -6.6200   -9.0570   35.8640 S.3   129  CYS129     -0.0798
    102  N         -6.0460  -11.1110   29.8090 N.3   132  HIS132     -0.1226
    103  CA        -6.5730   -9.8320   29.3500 C.3   132  HIS132      0.1752
    104  C         -5.4580   -8.7790   29.3860 C.2   132  HIS132      0.2595
    105  O         -5.2580   -8.0390   28.4180 O.2   132  HIS132     -0.2718
    106  CB        -7.7390   -9.4170   30.2560 C.3   132  HIS132      0.0759
    107  CG        -8.2960   -8.0570   29.9690 C.ar  132  HIS132      0.0818
    108  ND1       -9.5740   -7.8560   29.4960 N.ar  132  HIS132     -0.2268
    109  CD2       -7.7700   -6.8190   30.1650 C.ar  132  HIS132      0.1154
    110  CE1       -9.8180   -6.5630   29.4180 C.ar  132  HIS132      0.1986
    111  NE2       -8.7420   -5.9110   29.8180 N.ar  132  HIS132     -0.2212
    112  N         -4.7250   -8.7180   30.4970 N.am  133  GLU133     -0.1979
    113  CA        -3.6440   -7.7380   30.6310 C.3   133  GLU133      0.1602
    114  C         -2.4900   -8.0100   29.6660 C.2   133  GLU133      0.2287
    115  O         -1.9120   -7.0790   29.1010 O.2   133  GLU133     -0.2864
    116  CB        -3.0930   -7.7090   32.0660 C.3   133  GLU133      0.0415
    117  CG        -4.1180   -7.4590   33.1720 C.3   133  GLU133      0.1163
    118  CD        -5.0310   -6.2790   32.9060 C.2   133  GLU133      0.3649
    119  OE1       -4.6680   -5.3790   32.1140 O.co2 133  GLU133     -0.2457
    120  OE2       -6.1240   -6.2480   33.5100 O.co2 133  GLU133     -0.2457
    121  N         -3.2350   -6.6940   26.2590 N.3   136  HIS136     -0.1241
    122  CA        -3.0000   -5.2560   26.1390 C.3   136  HIS136      0.1621
    123  C         -1.5660   -4.9600   25.7100 C.2   136  HIS136      0.2264
    124  O         -1.3350   -4.1130   24.8450 O.2   136  HIS136     -0.2867
    125  CB        -3.2730   -4.5380   27.4700 C.3   136  HIS136      0.0745
    126  CG        -4.7070   -4.1640   27.6860 C.ar  136  HIS136      0.0817
    127  ND1       -5.3940   -3.3210   26.8370 N.ar  136  HIS136     -0.2268
    128  CD2       -5.5780   -4.4920   28.6710 C.ar  136  HIS136      0.1154
    129  CE1       -6.6240   -3.1460   27.2930 C.ar  136  HIS136      0.1986
    130  NE2       -6.7580   -3.8460   28.4040 N.ar  136  HIS136     -0.2212
@<TRIPOS>BOND
     1   124   123    2
     2   123   122    1
     3   122   121    1
     4   122   125    1
     5    72    71    2
     6   127   129   ar
     7   127   126   ar
     8   129   130   ar
     9    71    70    1
    10   125   126    1
    11   126   128   ar
    12    69    70    1
    13    70    73    1
    14    60    59    1
    15   130   128   ar
    16   105   104    2
    17    25    26    1
    18    59    56    1
    19    26    27    1
    20    26    29    1
    21    28    27    2
    22    49    48   ar
    23   115   114    2
    24    30    29    1
    25    30    31    1
    26    45    44    2
    27    50    48   ar
    28   103   104    1
    29   103   102    1
    30   103   106    1
    31   104   112   am
    32   110   108   ar
    33   110   111   ar
    34    48    47    1
    35   108   107   ar
    36   114   113    1
    37    37    36    2
    38    46    47    1
    39    46    43    1
    40    73    74    1
    41   111   109   ar
    42    58    57    2
    43   107   109   ar
    44   107   106    1
    45    64    63    2
    46    42    43    1
    47    63    62    1
    48    56    55    1
    49    56    57    1
    50    44    43    1
    51    44    51   am
    52    55    53   am
    53    33    31   am
    54    31    32    2
    55    57    61   am
    56   112   113    1
    57    53    54    2
    58    53    52    1
    59   113   116    1
    60    52    51    1
    61    36    35    1
    62    34    35    1
    63    74    75    1
    64    61    62    1
    65    62    65    1
    66    35    38    1
    67    91    90    2
    68   116   117    1
    69   119   118   ar
    70    75    76    1
    71    94    92    1
    72    65    66    1
    73    39    38    1
    74    39    41    1
    75    99    98    2
    76    76    77    2
    77    90    89    1
    78    90    96   am
    79    89    92    1
    80    89    88    1
    81    38    40    1
    82   118   117    1
    83   118   120   ar
    84    93    92    1
    85    93    95    1
    86    77    79    1
    87    77    78    1
    88    98    97    1
    89    23    22    1
    90    19    20    2
    91    19    18    1
    92    66    68    1
    93    66    67    1
    94    96    97    1
    95    97   100    1
    96    22    24    1
    97    22    21    1
    98    18    21    1
    99    18    17    1
   100    17    15   am
   101    16    15    2
   102   100   101    1
   103    15    14    1
   104    83    82    2
   105    14    13    1
   106    86    85    1
   107    82    81    1
   108    81    80    1
   109    81    84    1
   110    13     7   am
   111    85    84    1
   112    85    87    1
   113    10    12    1
   114    10     9    1
   115     2     3    1
   116     2     1    1
   117     7     8    2
   118     7     6    1
   119     5     3   am
   120     5     6    1
   121     3     4    2
   122     6     9    1
   123     9    11    1
