@<TRIPOS>MOLECULE
tmp/2aiaA00.pdb
 132 127 0 0 0
SMALL
GASTEIGER

@<TRIPOS>ATOM
      1  N         -8.0660   23.9110    8.0290 N.3    68  GLY68      -0.1210
      2  CA        -7.1060   23.0120    7.4130 C.3    68  GLY68       0.1956
      3  C         -6.3610   23.7090    6.2910 C.2    68  GLY68       0.2612
      4  O         -6.9680   24.3980    5.4780 O.2    68  GLY68      -0.2717
      5  N         -5.0430   23.5430    6.2470 N.am   69  GLY69      -0.1942
      6  CA        -4.2660   24.1810    5.1980 C.3    69  GLY69       0.2014
      7  C         -3.1610   23.2920    4.6670 C.2    69  GLY69       0.2639
      8  O         -2.6330   22.4500    5.3960 O.2    69  GLY69      -0.2714
      9  N         -2.8230   23.4680    3.3890 N.am   70  VAL70      -0.1963
     10  CA        -1.7700   22.6840    2.7500 C.3    70  VAL70       0.1727
     11  C         -0.5750   23.5710    2.4170 C.2    70  VAL70       0.2616
     12  O          0.4230   23.1070    1.8670 O.2    70  VAL70      -0.2715
     13  CB        -2.2670   22.0200    1.4400 C.3    70  VAL70       0.0290
     14  CG1       -3.3780   21.0230    1.7560 C.3    70  VAL70       0.0023
     15  CG2       -2.7680   23.0860    0.4630 C.3    70  VAL70       0.0023
     16  N         -0.6940   24.8500    2.7450 N.am   71  GLY71      -0.1955
     17  CA         0.3820   25.7870    2.4830 C.3    71  GLY71       0.1869
     18  C          0.2090   27.0590    3.2840 C.2    71  GLY71       0.2309
     19  O         -0.8930   27.3720    3.7370 O.2    71  GLY71      -0.2863
     20  N          1.2300   36.1670    5.2010 N.3    76  GLN76      -0.1245
     21  CA        -0.0500   35.9010    5.8500 C.3    76  GLN76       0.1566
     22  C          0.0730   36.0830    7.3590 C.2    76  GLN76       0.2260
     23  O         -0.9300   36.2280    8.0570 O.2    76  GLN76      -0.2867
     24  CB        -0.5260   34.4840    5.5390 C.3    76  GLN76       0.0367
     25  CG        -0.9200   34.2730    4.0800 C.3    76  GLN76       0.0905
     26  CD        -1.3890   32.8590    3.8010 C.2    76  GLN76       0.2608
     27  OE1       -0.5810   31.9480    3.6170 O.2    76  GLN76      -0.2717
     28  NE2       -2.7060   32.6640    3.7850 N.am   76  GLN76      -0.0878
     29  N         -7.7070   23.5410  -10.3020 N.3   113  LEU113     -0.1245
     30  CA        -8.3930   22.5190   -9.5290 C.3   113  LEU113      0.1561
     31  C         -9.8800   22.6140   -9.8510 C.2   113  LEU113      0.2260
     32  O        -10.4420   23.7090   -9.8830 O.2   113  LEU113     -0.2867
     33  CB        -8.1440   22.7350   -8.0350 C.3   113  LEU113      0.0270
     34  CG        -6.6740   22.5340   -7.6410 C.3   113  LEU113      0.0019
     35  CD1       -6.4590   22.9320   -6.2080 C.3   113  LEU113      0.0001
     36  CD2       -6.2850   21.0820   -7.8480 C.3   113  LEU113      0.0001
     37  N        -12.2600   22.0410   -8.1270 N.3   115  GLU115     -0.1231
     38  CA       -13.0390   22.4880   -6.9820 C.3   115  GLU115      0.1699
     39  C        -12.7370   23.9370   -6.6330 C.2   115  GLU115      0.2593
     40  O        -13.3090   24.4930   -5.6940 O.2   115  GLU115     -0.2718
     41  CB       -12.7530   21.5950   -5.7740 C.3   115  GLU115      0.0402
     42  CG       -13.3130   20.1870   -5.8980 C.3   115  GLU115      0.1161
     43  CD       -13.0170   19.3350   -4.6790 C.2   115  GLU115      0.3649
     44  OE1      -12.6120   19.9060   -3.6430 O.co2 115  GLU115     -0.2457
     45  OE2      -13.1970   18.0990   -4.7540 O.co2 115  GLU115     -0.2457
     46  N        -11.8440   24.5520   -7.3990 N.am  116  GLY116     -0.1942
     47  CA       -11.4840   25.9320   -7.1340 C.3   116  GLY116      0.2014
     48  C        -10.5100   26.0110   -5.9730 C.2   116  GLY116      0.2639
     49  O         -9.9620   24.9950   -5.5540 O.2   116  GLY116     -0.2714
     50  N        -10.2930   27.2110   -5.4520 N.am  117  GLU117     -0.1963
     51  CA        -9.3700   27.3810   -4.3350 C.3   117  GLU117      0.1733
     52  C         -9.9190   28.2410   -3.2020 C.2   117  GLU117      0.2617
     53  O        -10.8870   28.9800   -3.3710 O.2   117  GLU117     -0.2715
     54  CB        -8.0540   27.9920   -4.8230 C.3   117  GLU117      0.0429
     55  CG        -7.2230   27.0770   -5.7000 C.3   117  GLU117      0.1163
     56  CD        -5.9130   27.7130   -6.1300 C.2   117  GLU117      0.3649
     57  OE1       -5.3970   28.5680   -5.3790 O.co2 117  GLU117     -0.2457
     58  OE2       -5.3910   27.3450   -7.2050 O.co2 117  GLU117     -0.2457
     59  N         -9.2810   28.1170   -2.0420 N.am  118  GLY118     -0.1940
     60  CA        -9.6500   28.8910   -0.8730 C.3   118  GLY118      0.2014
     61  C         -8.3660   29.4370   -0.2720 C.2   118  GLY118      0.2639
     62  O         -7.2790   29.0080   -0.6600 O.2   118  GLY118     -0.2714
     63  N         -8.4790   30.3790    0.6630 N.am  119  CYS119     -0.1953
     64  CA        -7.3070   30.9770    1.2970 C.3   119  CYS119      0.1843
     65  C         -7.5590   31.2270    2.7860 C.2   119  CYS119      0.2625
     66  O         -8.6610   31.6120    3.1810 O.2   119  CYS119     -0.2714
     67  CB        -6.9590   32.2940    0.5930 C.3   119  CYS119      0.0997
     68  SG        -5.3580   33.0070    1.0140 S.3   119  CYS119     -0.0797
     69  N         -6.5380   31.0060    3.6100 N.am  120  LEU120     -0.1977
     70  CA        -6.6680   31.2110    5.0500 C.3   120  LEU120      0.1596
     71  C         -6.9170   32.6780    5.3680 C.2   120  LEU120      0.2287
     72  O         -7.5050   33.0140    6.3990 O.2   120  LEU120     -0.2864
     73  CB        -5.3990   30.7460    5.7680 C.3   120  LEU120      0.0297
     74  CG        -5.1160   29.2450    5.7270 C.3   120  LEU120      0.0022
     75  CD1       -3.6870   28.9780    6.1720 C.3   120  LEU120      0.0001
     76  CD2       -6.1100   28.5120    6.6140 C.3   120  LEU120      0.0001
     77  N         -1.4770   18.5070   -8.1680 N.3   155  TYR155     -0.1241
     78  CA        -1.8240   19.2660   -6.9830 C.3   155  TYR155      0.1605
     79  C         -0.6530   20.0540   -6.3760 C.2   155  TYR155      0.2264
     80  O         -0.8080   21.2170   -6.0090 O.2   155  TYR155     -0.2867
     81  CB        -2.4360   18.3160   -5.9510 C.3   155  TYR155      0.0534
     82  CG        -2.9440   18.9890   -4.7070 C.ar  155  TYR155     -0.0201
     83  CD1       -3.8350   20.0530   -4.7830 C.ar  155  TYR155     -0.0009
     84  CD2       -2.5460   18.5470   -3.4470 C.ar  155  TYR155     -0.0009
     85  CE1       -4.3180   20.6610   -3.6400 C.ar  155  TYR155      0.0417
     86  CE2       -3.0160   19.1550   -2.2880 C.ar  155  TYR155      0.0417
     87  CZ        -3.9090   20.2180   -2.3990 C.ar  155  TYR155      0.1957
     88  OH        -4.4030   20.8490   -1.2800 O.3   155  TYR155     -0.2866
     89  N          0.0150   23.3180   -8.0900 N.3   158  ILE158     -0.1231
     90  CA        -0.9660   24.3350   -7.7390 C.3   158  ILE158      0.1692
     91  C         -0.6740   24.9510   -6.3750 C.2   158  ILE158      0.2591
     92  O         -0.6650   26.1760   -6.2220 O.2   158  ILE158     -0.2718
     93  CB        -2.3940   23.7390   -7.7060 C.3   158  ILE158      0.0266
     94  CG1       -2.7650   23.1700   -9.0830 C.3   158  ILE158      0.0019
     95  CG2       -3.3900   24.8070   -7.2630 C.3   158  ILE158      0.0020
     96  CD1       -2.8620   24.2050  -10.1910 C.3   158  ILE158      0.0001
     97  N         -0.4220   24.0990   -5.3870 N.am  159  VAL159     -0.1980
     98  CA        -0.1650   24.5730   -4.0340 C.3   159  VAL159      0.1595
     99  C          1.0370   25.4990   -3.9430 C.2   159  VAL159      0.2287
    100  O          0.9680   26.5530   -3.3190 O.2   159  VAL159     -0.2864
    101  CB         0.0250   23.3950   -3.0530 C.3   159  VAL159      0.0276
    102  CG1        0.3950   23.9190   -1.6740 C.3   159  VAL159      0.0022
    103  CG2       -1.2610   22.5760   -2.9680 C.3   159  VAL159      0.0022
    104  N          0.3450   28.8890   -5.4580 N.3   162  HIS162     -0.1226
    105  CA        -0.5440   29.6700   -4.6020 C.3   162  HIS162      0.1752
    106  C          0.2840   30.3860   -3.5280 C.2   162  HIS162      0.2595
    107  O          0.0870   31.5680   -3.2640 O.2   162  HIS162     -0.2718
    108  CB        -1.5820   28.7410   -3.9630 C.3   162  HIS162      0.0759
    109  CG        -2.5000   29.4150   -2.9900 C.ar  162  HIS162      0.0818
    110  ND1       -3.8660   29.4600   -3.1720 N.ar  162  HIS162     -0.2268
    111  CD2       -2.2600   30.0270   -1.8060 C.ar  162  HIS162      0.1154
    112  CE1       -4.4280   30.0650   -2.1390 C.ar  162  HIS162      0.1986
    113  NE2       -3.4750   30.4210   -1.2960 N.ar  162  HIS162     -0.2212
    114  N          1.2290   29.6730   -2.9180 N.am  163  GLU163     -0.1979
    115  CA         2.0570   30.2990   -1.8940 C.3   163  GLU163      0.1602
    116  C          3.0320   31.3120   -2.4840 C.2   163  GLU163      0.2287
    117  O          3.2720   32.3680   -1.9040 O.2   163  GLU163     -0.2864
    118  CB         2.8380   29.2490   -1.1010 C.3   163  GLU163      0.0415
    119  CG         1.9780   28.2040   -0.4000 C.3   163  GLU163      0.1163
    120  CD         0.7550   28.7890    0.2860 C.2   163  GLU163      0.3649
    121  OE1        0.8380   29.9210    0.8060 O.co2 163  GLU163     -0.2457
    122  OE2       -0.2850   28.0970    0.3090 O.co2 163  GLU163     -0.2457
    123  N          1.5310   34.5950   -2.8800 N.3   166  HIS166     -0.1241
    124  CA         1.4560   35.4010   -1.6640 C.3   166  HIS166      0.1621
    125  C          2.6820   36.2710   -1.4490 C.2   166  HIS166      0.2264
    126  O          2.5610   37.4090   -1.0020 O.2   166  HIS166     -0.2867
    127  CB         1.2510   34.5220   -0.4230 C.3   166  HIS166      0.0745
    128  CG        -0.1700   34.1150   -0.1950 C.ar  166  HIS166      0.0817
    129  ND1       -1.2070   35.0220   -0.1740 N.ar  166  HIS166     -0.2268
    130  CD2       -0.7240   32.9040    0.0470 C.ar  166  HIS166      0.1154
    131  CE1       -2.3410   34.3870    0.0700 C.ar  166  HIS166      0.1986
    132  NE2       -2.0750   33.1000    0.2090 N.ar  166  HIS166     -0.2212
@<TRIPOS>BOND
     1    29    30    1
     2    96    94    1
     3    32    31    2
     4    31    30    1
     5    30    33    1
     6    94    93    1
     7    77    78    1
     8    37    38    1
     9    89    90    1
    10    33    34    1
    11    36    34    1
    12    90    93    1
    13    90    91    1
    14    93    95    1
    15    34    35    1
    16    46    47    1
    17    46    39   am
    18    58    56   ar
    19    47    48    1
    20    78    79    1
    21    78    81    1
    22    38    39    1
    23    38    41    1
    24    39    40    2
    25    79    80    2
    26    91    92    2
    27    91    97   am
    28    56    55    1
    29    56    57   ar
    30    48    49    2
    31    48    50   am
    32    81    82    1
    33    42    41    1
    34    42    43    1
    35    55    54    1
    36   104   105    1
    37    50    51    1
    38    97    98    1
    39    54    51    1
    40    83    82   ar
    41    83    85   ar
    42    45    43   ar
    43    82    84   ar
    44    43    44   ar
    45   105   108    1
    46   105   106    1
    47    51    52    1
    48    98    99    1
    49    98   101    1
    50   108   109    1
    51    99   100    2
    52    85    87   ar
    53   106   107    2
    54   106   114   am
    55    84    86   ar
    56    53    52    2
    57    52    59   am
    58   110   109   ar
    59   110   112   ar
    60   101   103    1
    61   101   102    1
    62   109   111   ar
    63   114   115    1
    64   123   124    1
    65   116   117    2
    66   116   115    1
    67    87    86   ar
    68    87    88    1
    69   112   113   ar
    70    59    60    1
    71   115   118    1
    72   111   113   ar
    73   124   125    1
    74   124   127    1
    75   125   126    2
    76   118   119    1
    77    60    61    1
    78    62    61    2
    79   127   128    1
    80   119   120    1
    81    61    63   am
    82   128   129   ar
    83   128   130   ar
    84   129   131   ar
    85   130   132   ar
    86   131   132   ar
    87   120   122   ar
    88   120   121   ar
    89    15    13    1
    90    67    68    1
    91    67    64    1
    92    63    64    1
    93    64    65    1
    94    13    14    1
    95    13    10    1
    96    12    11    2
    97    11    16   am
    98    11    10    1
    99    17    16    1
   100    17    18    1
   101    10     9    1
   102    65    66    2
   103    65    69   am
   104    18    19    2
   105     9     7   am
   106    69    70    1
   107    27    26    2
   108    28    26   am
   109    26    25    1
   110    25    24    1
   111     7     6    1
   112     7     8    2
   113    70    71    1
   114    70    73    1
   115     6     5    1
   116    20    21    1
   117    71    72    2
   118     4     3    2
   119    24    21    1
   120    74    73    1
   121    74    75    1
   122    74    76    1
   123    21    22    1
   124     5     3   am
   125     3     2    1
   126    22    23    2
   127     2     1    1
