@<TRIPOS>MOLECULE
tmp/2aidB01.pdb
 71 65 0 0 0
SMALL
GASTEIGER

@<TRIPOS>ATOM
      1  N          5.4630    0.4260   21.3880 N.3    27  GLY27      -0.1210
      2  CA         4.8910   -0.8480   21.0460 C.3    27  GLY27       0.1956
      3  C          5.9770   -1.8660   20.6470 C.2    27  GLY27       0.2612
      4  O          5.6560   -3.0400   20.4260 O.2    27  GLY27      -0.2717
      5  N          7.2560   -1.5190   20.4880 N.am   28  ALA28      -0.1965
      6  CA         8.2830   -2.5080   20.1560 C.3    28  ALA28       0.1728
      7  C          9.0120   -3.0150   21.4080 C.2    28  ALA28       0.2616
      8  O          9.5060   -2.2230   22.2150 O.2    28  ALA28      -0.2715
      9  CB         9.2840   -1.8640   19.1850 C.3    28  ALA28       0.0334
     10  N          9.0920   -4.3510   21.6200 N.am   29  ASP29      -0.1957
     11  CA         9.8730   -4.9400   22.7140 C.3    29  ASP29       0.1840
     12  C         11.3700   -4.7490   22.4900 C.2    29  ASP29       0.2622
     13  O         12.1770   -4.5800   23.3780 O.2    29  ASP29      -0.2715
     14  CB         9.6510   -6.4270   22.7960 C.3    29  ASP29       0.1450
     15  CG         8.2290   -6.9030   23.0550 C.2    29  ASP29       0.3671
     16  OD1        7.3930   -6.1800   23.5920 O.co2  29  ASP29      -0.2456
     17  OD2        7.9480   -8.0350   22.7110 O.co2  29  ASP29      -0.2456
     18  N         11.7510   -4.7910   21.2340 N.am   30  ASP30      -0.1971
     19  CA        13.1130   -4.8060   20.7620 C.3    30  ASP30       0.1709
     20  C         13.4930   -3.5690   19.9610 C.2    30  ASP30       0.2293
     21  O         12.6370   -3.0110   19.2740 O.2    30  ASP30      -0.2864
     22  CB        13.3290   -5.9820   19.8120 C.3    30  ASP30       0.1436
     23  CG        12.7440   -7.2670   20.3420 C.2    30  ASP30       0.3671
     24  OD1       13.1140   -7.6590   21.4480 O.co2  30  ASP30      -0.2456
     25  OD2       11.8730   -7.7950   19.6660 O.co2  30  ASP30      -0.2456
     26  N         15.3350   -2.3300   16.6810 N.3    32  VAL32      -0.1245
     27  CA        15.7010   -2.8490   15.3700 C.3    32  VAL32       0.1561
     28  C         16.3170   -1.6750   14.6060 C.2    32  VAL32       0.2260
     29  O         15.7950   -0.5630   14.5390 O.2    32  VAL32      -0.2867
     30  CB        14.4620   -3.4720   14.6210 C.3    32  VAL32       0.0252
     31  CG1       13.8170   -4.5930   15.4160 C.3    32  VAL32       0.0019
     32  CG2       13.3530   -2.5310   14.5840 C.3    32  VAL32       0.0019
     33  N         11.5650  -11.6040   13.4240 N.3    47  ILE47      -0.1231
     34  CA        10.6630  -10.8210   14.2560 C.3    47  ILE47       0.1692
     35  C          9.4760  -10.4540   13.3440 C.2    47  ILE47       0.2593
     36  O          9.6320  -10.2460   12.1450 O.2    47  ILE47      -0.2718
     37  CB        11.3020   -9.4860   14.8480 C.3    47  ILE47       0.0266
     38  CG1       12.0490   -8.6740   13.7940 C.3    47  ILE47       0.0019
     39  CG2       12.1900   -9.8830   16.0090 C.3    47  ILE47       0.0020
     40  CD1       11.8200   -7.1890   14.0030 C.3    47  ILE47       0.0001
     41  N          8.2330  -10.4960   13.8540 N.am   48  GLY48      -0.1942
     42  CA         7.0790  -10.1670   13.0330 C.3    48  GLY48       0.2014
     43  C          6.5360   -8.7970   13.4000 C.2    48  GLY48       0.2639
     44  O          6.5350   -8.3820   14.5610 O.2    48  GLY48      -0.2714
     45  N          6.1530   -8.0630   12.3810 N.am   49  GLY49      -0.1954
     46  CA         5.5250   -6.7850   12.6360 C.3    49  GLY49       0.1869
     47  C          4.2340   -6.8110   11.8980 C.2    49  GLY49       0.2309
     48  O          3.6470   -7.8540   11.6180 O.2    49  GLY49      -0.2863
     49  N         10.4980  -10.3640    9.3640 N.3    54  ILE54      -0.1245
     50  CA        11.7310  -10.0830    8.6430 C.3    54  ILE54       0.1561
     51  C         12.7840  -10.8340    9.4370 C.2    54  ILE54       0.2260
     52  O         12.5990  -11.1780   10.6060 O.2    54  ILE54      -0.2867
     53  CB        12.1700   -8.5840    8.5620 C.3    54  ILE54       0.0252
     54  CG1       12.1550   -7.8610    9.8640 C.3    54  ILE54       0.0019
     55  CG2       11.2250   -7.8930    7.5710 C.3    54  ILE54       0.0019
     56  CD1       12.7320   -6.4100    9.7900 C.3    54  ILE54       0.0001
     57  N         15.3450   -2.4910    7.6040 N.3    80  THR80      -0.1218
     58  CA        14.2630   -1.6250    7.9900 C.3    80  THR80       0.1862
     59  C         14.6130   -0.2530    7.4350 C.2    80  THR80       0.2287
     60  O         15.7970    0.1490    7.4030 O.2    80  THR80      -0.2866
     61  CB        14.1050   -1.6210    9.5590 C.3    80  THR80       0.1770
     62  OG1       13.1310   -0.6020    9.8010 O.3    80  THR80      -0.2211
     63  CG2       15.3770   -1.3580   10.3530 C.3    80  THR80       0.0375
     64  N         14.2610    1.7840   14.9340 N.3    84  ILE84      -0.1245
     65  CA        13.2200    1.7440   15.9350 C.3    84  ILE84       0.1561
     66  C         13.8580    1.4310   17.2890 C.2    84  ILE84       0.2260
     67  O         14.5010    0.3650   17.4610 O.2    84  ILE84      -0.2867
     68  CB        12.2040    0.6450   15.4940 C.3    84  ILE84       0.0252
     69  CG1       11.4710    1.1350   14.2990 C.3    84  ILE84       0.0019
     70  CG2       11.2040    0.3200   16.5930 C.3    84  ILE84       0.0019
     71  CD1       11.2770    0.0800   13.2410 C.3    84  ILE84       0.0001
@<TRIPOS>BOND
     1    60    59    2
     2    59    58    1
     3    55    53    1
     4    57    58    1
     5    58    61    1
     6    53    50    1
     7    53    54    1
     8    50    49    1
     9    50    51    1
    10    51    52    2
    11    61    62    1
    12    61    63    1
    13    56    54    1
    14    48    47    2
    15    47    46    1
    16    36    35    2
    17    45    46    1
    18    45    43   am
    19    42    43    1
    20    42    41    1
    21    71    69    1
    22    35    41   am
    23    35    34    1
    24    43    44    2
    25    33    34    1
    26    38    40    1
    27    38    37    1
    28    34    37    1
    29    69    68    1
    30    29    28    2
    31    32    30    1
    32    28    27    1
    33    30    27    1
    34    30    31    1
    35    37    39    1
    36    64    65    1
    37    27    26    1
    38    68    65    1
    39    68    70    1
    40    65    66    1
    41    66    67    2
    42     9     6    1
    43    21    20    2
    44    25    23   ar
    45    22    23    1
    46    22    19    1
    47    20    19    1
    48     6     5    1
    49     6     7    1
    50    23    24   ar
    51     4     3    2
    52     5     3   am
    53     3     2    1
    54    19    18    1
    55     2     1    1
    56    18    12   am
    57     7    10   am
    58     7     8    2
    59    10    11    1
    60    12    11    1
    61    12    13    2
    62    17    15   ar
    63    11    14    1
    64    14    15    1
    65    15    16   ar
