@<TRIPOS>MOLECULE
tmp/2aidB00.pdb
 81 74 0 0 0
SMALL
GASTEIGER

@<TRIPOS>ATOM
      1  N          5.8910   12.1460   14.2440 N.3     8  ARG8       -0.1245
      2  CA         6.6150   10.9240   14.6250 C.3     8  ARG8        0.1563
      3  C          7.6790   11.2810   15.6560 C.2     8  ARG8        0.2260
      4  O          8.3720   12.3090   15.4870 O.2     8  ARG8       -0.2867
      5  CB         7.2660   10.3390   13.4070 C.3     8  ARG8        0.0307
      6  CG         6.2350    9.6660   12.5150 C.3     8  ARG8        0.0489
      7  CD         6.9030    9.2090   11.2990 C.3     8  ARG8        0.2205
      8  NE         5.9250    8.5580   10.4580 N.pl3   8  ARG8       -0.0865
      9  CZ         6.1880    8.2340    9.1770 C.cat   8  ARG8        0.5346
     10  NH1        7.3620    8.5740    8.6210 N.pl3   8  ARG8        0.1354
     11  NH2        5.2620    7.5820    8.4290 N.pl3   8  ARG8        0.1354
     12  N         13.1020    6.2530   15.6740 N.3    23  LEU23      -0.1245
     13  CA        11.7350    6.3150   16.1430 C.3    23  LEU23       0.1561
     14  C         11.6170    5.7250   17.5360 C.2    23  LEU23       0.2260
     15  O         12.0090    4.5710   17.7650 O.2    23  LEU23      -0.2867
     16  CB        10.8520    5.5340   15.1470 C.3    23  LEU23       0.0270
     17  CG         9.3550    5.4850   15.3870 C.3    23  LEU23       0.0019
     18  CD1        8.7850    6.9000   15.4140 C.3    23  LEU23       0.0001
     19  CD2        8.7100    4.6800   14.2840 C.3    23  LEU23       0.0001
     20  N          9.5760    3.9980   20.0230 N.3    25  ASP25      -0.1239
     21  CA         8.4790    3.0650   19.7960 C.3    25  ASP25       0.1674
     22  C          8.0870    2.2330   20.9850 C.2    25  ASP25       0.2266
     23  O          8.5770    1.1170   21.1820 O.2    25  ASP25      -0.2867
     24  CB         8.8540    2.1340   18.6300 C.3    25  ASP25       0.1410
     25  CG         7.6750    1.5120   17.8680 C.2    25  ASP25       0.3668
     26  OD1        6.7260    1.0340   18.4690 O.co2  25  ASP25      -0.2456
     27  OD2        7.6830    1.5200   16.6530 O.co2  25  ASP25      -0.2456
     28  N          5.4630    0.4260   21.3880 N.3    27  GLY27      -0.1210
     29  CA         4.8910   -0.8480   21.0460 C.3    27  GLY27       0.1956
     30  C          5.9770   -1.8660   20.6470 C.2    27  GLY27       0.2611
     31  O          5.6560   -3.0400   20.4260 O.2    27  GLY27      -0.2717
     32  N          7.2560   -1.5190   20.4880 N.am   28  ALA28      -0.1979
     33  CA         8.2830   -2.5080   20.1560 C.3    28  ALA28       0.1597
     34  C          9.0120   -3.0150   21.4080 C.2    28  ALA28       0.2287
     35  O          9.5060   -2.2230   22.2150 O.2    28  ALA28      -0.2864
     36  CB         9.2840   -1.8640   19.1850 C.3    28  ALA28       0.0319
     37  N         15.3350   -2.3300   16.6810 N.3    32  VAL32      -0.1245
     38  CA        15.7010   -2.8490   15.3700 C.3    32  VAL32       0.1561
     39  C         16.3170   -1.6750   14.6060 C.2    32  VAL32       0.2260
     40  O         15.7950   -0.5630   14.5390 O.2    32  VAL32      -0.2867
     41  CB        14.4620   -3.4720   14.6210 C.3    32  VAL32       0.0252
     42  CG1       13.8170   -4.5930   15.4160 C.3    32  VAL32       0.0019
     43  CG2       13.3530   -2.5310   14.5840 C.3    32  VAL32       0.0019
     44  N          8.2330  -10.4960   13.8540 N.3    48  GLY48      -0.1210
     45  CA         7.0790  -10.1670   13.0330 C.3    48  GLY48       0.1956
     46  C          6.5360   -8.7970   13.4000 C.2    48  GLY48       0.2612
     47  O          6.5350   -8.3820   14.5610 O.2    48  GLY48      -0.2717
     48  N          6.1530   -8.0630   12.3810 N.am   49  GLY49      -0.1942
     49  CA         5.5250   -6.7850   12.6360 C.3    49  GLY49       0.2014
     50  C          4.2340   -6.8110   11.8980 C.2    49  GLY49       0.2638
     51  O          3.6470   -7.8540   11.6180 O.2    49  GLY49      -0.2714
     52  N          3.8210   -5.6000   11.5670 N.am   50  ILE50      -0.1977
     53  CA         2.6860   -5.4430   10.6730 C.3    50  ILE50       0.1596
     54  C          3.1620   -5.9270    9.2800 C.2    50  ILE50       0.2287
     55  O          4.1830   -5.4900    8.7180 O.2    50  ILE50      -0.2864
     56  CB         2.2580   -3.9340   10.6470 C.3    50  ILE50       0.0276
     57  CG1        1.9030   -3.4570   12.0510 C.3    50  ILE50       0.0022
     58  CG2        1.0460   -3.7320    9.7330 C.3    50  ILE50       0.0022
     59  CD1        0.6570   -4.1220   12.5830 C.3    50  ILE50       0.0001
     60  N         13.5940    0.5100    6.9830 N.3    81  PRO81      -0.2102
     61  CA        13.8020    1.8610    6.5070 C.3    81  PRO81       0.1504
     62  C         14.0640    2.8240    7.6690 C.2    81  PRO81       0.2575
     63  O         14.7460    3.8350    7.4500 O.2    81  PRO81      -0.2718
     64  CB        12.5490    2.1240    5.7090 C.3    81  PRO81       0.0282
     65  CG        11.4680    1.3230    6.4480 C.3    81  PRO81       0.0208
     66  CD        12.1730    0.1120    6.9070 C.3    81  PRO81       0.0893
     67  N         13.5900    2.4960    8.8960 N.am   82  VAL82      -0.1980
     68  CA        13.7280    3.3230   10.0940 C.3    82  VAL82       0.1595
     69  C         14.4140    2.5550   11.1800 C.2    82  VAL82       0.2287
     70  O         14.1250    1.3870   11.3970 O.2    82  VAL82      -0.2864
     71  CB        12.4320    3.7590   10.8680 C.3    82  VAL82       0.0276
     72  CG1       12.4210    5.2830   10.9900 C.3    82  VAL82       0.0022
     73  CG2       11.2050    3.1280   10.2340 C.3    82  VAL82       0.0022
     74  N         14.2610    1.7840   14.9340 N.3    84  ILE84      -0.1245
     75  CA        13.2200    1.7440   15.9350 C.3    84  ILE84       0.1561
     76  C         13.8580    1.4310   17.2890 C.2    84  ILE84       0.2260
     77  O         14.5010    0.3650   17.4610 O.2    84  ILE84      -0.2867
     78  CB        12.2040    0.6450   15.4940 C.3    84  ILE84       0.0252
     79  CG1       11.4710    1.1350   14.2990 C.3    84  ILE84       0.0019
     80  CG2       11.2040    0.3200   16.5930 C.3    84  ILE84       0.0019
     81  CD1       11.2770    0.0800   13.2410 C.3    84  ILE84       0.0001
@<TRIPOS>BOND
     1    64    65    1
     2    64    61    1
     3    65    66    1
     4    61    60    1
     5    61    62    1
     6    66    60    1
     7    63    62    2
     8    62    67   am
     9    11     9    1
    10    10     9    1
    11    55    54    2
    12    67    68    1
    13     9     8    2
    14    54    53    1
    15    58    56    1
    16    68    71    1
    17    68    69    1
    18    73    71    1
    19     8     7    1
    20    56    53    1
    21    56    57    1
    22    53    52    1
    23    71    72    1
    24    69    70    2
    25     7     6    1
    26    52    50   am
    27    51    50    2
    28    50    49    1
    29    57    59    1
    30    48    49    1
    31    48    46   am
    32     6     5    1
    33    45    46    1
    34    45    44    1
    35    81    79    1
    36    46    47    2
    37     5     2    1
    38     1     2    1
    39    19    17    1
    40    79    78    1
    41    40    39    2
    42    43    41    1
    43    39    38    1
    44    41    38    1
    45    41    42    1
    46     2     3    1
    47    74    75    1
    48    16    17    1
    49    16    13    1
    50    38    37    1
    51    17    18    1
    52     4     3    2
    53    78    75    1
    54    78    80    1
    55    12    13    1
    56    75    76    1
    57    13    14    1
    58    27    25   ar
    59    76    77    2
    60    14    15    2
    61    25    26   ar
    62    25    24    1
    63    24    21    1
    64    36    33    1
    65    21    20    1
    66    21    22    1
    67    33    32    1
    68    33    34    1
    69    31    30    2
    70    32    30   am
    71    30    29    1
    72    22    23    2
    73    29    28    1
    74    34    35    2
