@<TRIPOS>MOLECULE
tmp/2aieA00.pdb
 128 122 0 0 0
SMALL
GASTEIGER

@<TRIPOS>ATOM
      1  N         23.2100   -7.9620   -1.4170 N.3    68  GLY68      -0.1210
      2  CA        22.3330   -7.0460   -0.7130 C.3    68  GLY68       0.1956
      3  C         23.0290   -6.3510    0.4390 C.2    68  GLY68       0.2612
      4  O         23.9210   -6.9220    1.0740 O.2    68  GLY68      -0.2717
      5  N         22.6240   -5.1140    0.7130 N.am   69  GLY69      -0.1942
      6  CA        23.2370   -4.3750    1.7990 C.3    69  GLY69       0.2014
      7  C         22.5040   -3.1140    2.2090 C.2    69  GLY69       0.2639
      8  O         21.6890   -2.5730    1.4530 O.2    69  GLY69      -0.2714
      9  N         22.8050   -2.6450    3.4180 N.am   70  VAL70      -0.1963
     10  CA        22.1830   -1.4410    3.9610 C.3    70  VAL70       0.1727
     11  C         23.2280   -0.3830    4.3320 C.2    70  VAL70       0.2616
     12  O         22.8920    0.6640    4.8870 O.2    70  VAL70      -0.2715
     13  CB        21.3260   -1.7720    5.2150 C.3    70  VAL70       0.0290
     14  CG1       20.1770   -2.7090    4.8340 C.3    70  VAL70       0.0023
     15  CG2       22.1940   -2.4230    6.2900 C.3    70  VAL70       0.0023
     16  N         24.4910   -0.6510    4.0130 N.am   71  GLY71      -0.1955
     17  CA        25.5400    0.3010    4.3320 C.3    71  GLY71       0.1869
     18  C         26.7750    0.1500    3.4670 C.2    71  GLY71       0.2309
     19  O         27.0640   -0.9430    2.9790 O.2    71  GLY71      -0.2863
     20  N         35.7850    1.0830    1.4360 N.3    76  GLN76      -0.1245
     21  CA        35.4790   -0.1860    0.7800 C.3    76  GLN76       0.1566
     22  C         35.6010   -0.0680   -0.7400 C.2    76  GLN76       0.2260
     23  O         35.5680   -1.0730   -1.4570 O.2    76  GLN76      -0.2867
     24  CB        34.0690   -0.6520    1.1460 C.3    76  GLN76       0.0367
     25  CG        33.9190   -1.1760    2.5750 C.3    76  GLN76       0.0905
     26  CD        32.4900   -1.5820    2.8980 C.2    76  GLN76       0.2608
     27  OE1       31.6260   -0.7330    3.1220 O.2    76  GLN76      -0.2717
     28  NE2       32.2310   -2.8900    2.9120 N.am   76  GLN76      -0.0878
     29  N         23.3920   -7.7040   17.0690 N.3   115  LEU115     -0.1245
     30  CA        22.3630   -8.4030   16.3210 C.3   115  LEU115      0.1561
     31  C         22.5050   -9.8830   16.6440 C.2   115  LEU115      0.2260
     32  O         23.6090  -10.4220   16.6460 O.2   115  LEU115     -0.2867
     33  CB        22.5380   -8.1800   14.8180 C.3   115  LEU115      0.0270
     34  CG        22.3770   -6.7450   14.3060 C.3   115  LEU115      0.0019
     35  CD1       22.6040   -6.7140   12.8010 C.3   115  LEU115      0.0001
     36  CD2       20.9830   -6.2290   14.6410 C.3   115  LEU115      0.0001
     37  N         21.6820  -12.2930   14.8660 N.3   117  GLU117     -0.1245
     38  CA        22.0470  -13.0430   13.6690 C.3   117  GLU117      0.1567
     39  C         23.4900  -12.7560   13.2750 C.2   117  GLU117      0.2260
     40  O         23.9590  -13.2150   12.2350 O.2   117  GLU117     -0.2867
     41  CB        21.1220  -12.6760   12.5020 C.3   117  GLU117      0.0388
     42  CG        21.5410  -11.4160   11.7490 C.3   117  GLU117      0.1160
     43  CD        20.5050  -10.3080   11.8060 C.2   117  GLU117      0.3649
     44  OE1       19.4130  -10.4720   11.2220 O.co2 117  GLU117     -0.2457
     45  OE2       20.7850   -9.2680   12.4360 O.co2 117  GLU117     -0.2457
     46  N         26.8150  -10.4560   12.0950 N.3   119  GLU119     -0.1231
     47  CA        26.9980   -9.4950   11.0090 C.3   119  GLU119      0.1699
     48  C         27.8170  -10.0600    9.8560 C.2   119  GLU119      0.2593
     49  O         28.5170  -11.0680   10.0010 O.2   119  GLU119     -0.2718
     50  CB        27.6970   -8.2300   11.5220 C.3   119  GLU119      0.0402
     51  CG        26.8400   -7.3430   12.4070 C.3   119  GLU119      0.1161
     52  CD        27.5450   -6.0550   12.8010 C.2   119  GLU119      0.3649
     53  OE1       28.3730   -5.5590   12.0080 O.co2 119  GLU119     -0.2457
     54  OE2       27.2610   -5.5280   13.8980 O.co2 119  GLU119     -0.2457
     55  N         27.7140   -9.3860    8.7150 N.am  120  GLY120     -0.1942
     56  CA        28.4470   -9.7580    7.5210 C.3   120  GLY120      0.2014
     57  C         29.0550   -8.4810    6.9650 C.2   120  GLY120      0.2639
     58  O         28.7880   -7.3930    7.4810 O.2   120  GLY120     -0.2714
     59  N         29.8640   -8.5970    5.9190 N.am  121  CYS121     -0.1953
     60  CA        30.4980   -7.4280    5.3200 C.3   121  CYS121      0.1843
     61  C         30.7460   -7.6790    3.8340 C.2   121  CYS121      0.2625
     62  O         31.1410   -8.7740    3.4440 O.2   121  CYS121     -0.2714
     63  CB        31.8220   -7.1230    6.0300 C.3   121  CYS121      0.0997
     64  SG        32.6010   -5.5300    5.5990 S.3   121  CYS121     -0.0797
     65  N         30.5090   -6.6620    3.0110 N.am  122  LEU122     -0.1977
     66  CA        30.7110   -6.7810    1.5690 C.3   122  LEU122      0.1596
     67  C         32.1760   -7.0400    1.2440 C.2   122  LEU122      0.2287
     68  O         32.4980   -7.6300    0.2100 O.2   122  LEU122     -0.2864
     69  CB        30.2600   -5.4990    0.8660 C.3   122  LEU122      0.0297
     70  CG        28.8120   -5.0800    1.1170 C.3   122  LEU122      0.0022
     71  CD1       28.5880   -3.6700    0.5920 C.3   122  LEU122      0.0001
     72  CD2       27.8700   -6.0710    0.4620 C.3   122  LEU122      0.0001
     73  N         18.5350   -1.6520   15.2630 N.3   157  TYR157     -0.1241
     74  CA        19.1970   -2.0180   14.0230 C.3   157  TYR157      0.1605
     75  C         19.9690   -0.8640   13.3760 C.2   157  TYR157      0.2264
     76  O         21.1170   -1.0340   12.9840 O.2   157  TYR157     -0.2867
     77  CB        18.1430   -2.5540   13.0450 C.3   157  TYR157      0.0534
     78  CG        18.6730   -3.1520   11.7590 C.ar  157  TYR157     -0.0201
     79  CD1       19.2300   -4.4330   11.7310 C.ar  157  TYR157     -0.0009
     80  CD2       18.5710   -2.4530   10.5580 C.ar  157  TYR157     -0.0009
     81  CE1       19.6640   -4.9980   10.5330 C.ar  157  TYR157      0.0417
     82  CE2       19.0020   -3.0050    9.3610 C.ar  157  TYR157      0.0417
     83  CZ        19.5450   -4.2770    9.3520 C.ar  157  TYR157      0.1957
     84  OH        19.9490   -4.8230    8.1540 O.3   157  TYR157     -0.2866
     85  N         23.3010   -0.0860   14.9320 N.3   160  ILE160     -0.1231
     86  CA        24.3020   -1.0770   14.5700 C.3   160  ILE160      0.1692
     87  C         24.9070   -0.7910   13.1970 C.2   160  ILE160      0.2591
     88  O         26.1300   -0.7570   13.0360 O.2   160  ILE160     -0.2718
     89  CB        23.6830   -2.4950   14.5710 C.3   160  ILE160      0.0266
     90  CG1       23.2500   -2.8700   15.9920 C.3   160  ILE160      0.0019
     91  CG2       24.6790   -3.5030   14.0120 C.3   160  ILE160      0.0020
     92  CD1       24.3920   -3.0000   16.9700 C.3   160  ILE160      0.0001
     93  N         24.0410   -0.5740   12.2130 N.am  161  VAL161     -0.1980
     94  CA        24.4670   -0.2970   10.8450 C.3   161  VAL161      0.1595
     95  C         25.3890    0.9100   10.7390 C.2   161  VAL161      0.2287
     96  O         26.4390    0.8420   10.1060 O.2   161  VAL161     -0.2864
     97  CB        23.2460   -0.0700    9.9180 C.3   161  VAL161      0.0276
     98  CG1       23.7170    0.3430    8.5290 C.3   161  VAL161      0.0022
     99  CG2       22.4110   -1.3460    9.8410 C.3   161  VAL161      0.0022
    100  N         28.7100    0.2050   12.2100 N.3   164  HIS164     -0.1226
    101  CA        29.4900   -0.6800   11.3440 C.3   164  HIS164      0.1752
    102  C         30.2270    0.1650   10.3030 C.2   164  HIS164      0.2595
    103  O         31.4180   -0.0250   10.0540 O.2   164  HIS164     -0.2718
    104  CB        28.5620   -1.6850   10.6560 C.3   164  HIS164      0.0759
    105  CG        29.2540   -2.5990    9.6900 C.ar  164  HIS164      0.0818
    106  ND1       29.3230   -3.9620    9.8830 N.ar  164  HIS164     -0.2268
    107  CD2       29.8550   -2.3540    8.5020 C.ar  164  HIS164      0.1154
    108  CE1       29.9370   -4.5190    8.8530 C.ar  164  HIS164      0.1986
    109  NE2       30.2690   -3.5660    8.0010 N.ar  164  HIS164     -0.2212
    110  N         29.5180    1.1120    9.6980 N.am  165  GLU165     -0.1979
    111  CA        30.1400    1.9580    8.6890 C.3   165  GLU165      0.1602
    112  C         31.1770    2.9120    9.2690 C.2   165  GLU165      0.2287
    113  O         32.2400    3.0990    8.6830 O.2   165  GLU165     -0.2864
    114  CB        29.0790    2.7450    7.9190 C.3   165  GLU165      0.0415
    115  CG        28.0450    1.8720    7.2200 C.3   165  GLU165      0.1163
    116  CD        28.6560    0.7090    6.4530 C.2   165  GLU165      0.3649
    117  OE1       29.7340    0.8790    5.8530 O.co2 165  GLU165     -0.2457
    118  OE2       28.0370   -0.3740    6.4430 O.co2 165  GLU165     -0.2457
    119  N         34.4160    1.3310    9.5610 N.3   168  HIS168     -0.1241
    120  CA        35.1790    1.2520    8.3230 C.3   168  HIS168      0.1621
    121  C         36.0730    2.4650    8.0990 C.2   168  HIS168      0.2264
    122  O         37.1950    2.3220    7.6150 O.2   168  HIS168     -0.2867
    123  CB        34.2510    1.0690    7.1100 C.3   168  HIS168      0.0745
    124  CG        33.8250   -0.3480    6.8790 C.ar  168  HIS168      0.0817
    125  ND1       34.7250   -1.3890    6.8030 N.ar  168  HIS168     -0.2268
    126  CD2       32.6040   -0.8900    6.6540 C.ar  168  HIS168      0.1154
    127  CE1       34.0780   -2.5100    6.5380 C.ar  168  HIS168      0.1986
    128  NE2       32.7900   -2.2360    6.4410 N.ar  168  HIS168     -0.2212
@<TRIPOS>BOND
     1    23    22    2
     2     1     2    1
     3    22    21    1
     4     2     3    1
     5    68    67    2
     6     3     5   am
     7     3     4    2
     8    72    70    1
     9    71    70    1
    10     5     6    1
    11    21    24    1
    12    21    20    1
    13    69    70    1
    14    69    66    1
    15    24    25    1
    16    67    66    1
    17     8     7    2
    18    66    65    1
    19     6     7    1
    20     7     9   am
    21    25    26    1
    22    26    28   am
    23    26    27    2
    24    19    18    2
    25    65    61   am
    26     9    10    1
    27    62    61    2
    28    18    17    1
    29    61    60    1
    30    10    11    1
    31    10    13    1
    32    16    17    1
    33    16    11   am
    34    11    12    2
    35    14    13    1
    36    13    15    1
    37    60    59    1
    38    60    63    1
    39    64    63    1
    40   117   116   ar
    41    59    57   am
    42   128   127   ar
    43   128   126   ar
    44   118   116   ar
    45   116   115    1
    46   127   125   ar
    47   126   124   ar
    48   125   124   ar
    49   124   123    1
    50    57    58    2
    51    57    56    1
    52   123   120    1
    53   115   114    1
    54    56    55    1
    55   122   121    2
    56   114   111    1
    57   109   107   ar
    58   109   108   ar
    59   121   120    1
    60    84    83    1
    61   120   119    1
    62   107   105   ar
    63    98    97    1
    64   113   112    2
    65   111   112    1
    66   111   110    1
    67    55    48   am
    68   108   106   ar
    69    83    82   ar
    70    83    81   ar
    71    82    80   ar
    72   105   106   ar
    73   105   104    1
    74   110   102   am
    75    99    97    1
    76    48    49    2
    77    48    47    1
    78    97    94    1
    79   103   102    2
    80    96    95    2
    81   102   101    1
    82    81    79   ar
    83    80    78   ar
    84   104   101    1
    85    95    94    1
    86    94    93    1
    87    47    50    1
    88    47    46    1
    89    44    43   ar
    90   101   100    1
    91    50    51    1
    92    79    78   ar
    93    42    43    1
    94    42    41    1
    95    78    77    1
    96    43    45   ar
    97    53    52   ar
    98    93    87   am
    99    40    39    2
   100    51    52    1
   101    41    38    1
   102    35    34    1
   103    52    54   ar
   104    76    75    2
   105    88    87    2
   106    77    74    1
   107    87    86    1
   108    39    38    1
   109    75    74    1
   110    38    37    1
   111    91    89    1
   112    74    73    1
   113    34    36    1
   114    34    33    1
   115    86    89    1
   116    86    85    1
   117    89    90    1
   118    33    30    1
   119    90    92    1
   120    30    31    1
   121    30    29    1
   122    31    32    2
