@<TRIPOS>MOLECULE
tmp/2aimA00.pdb
 148 143 0 0 0
SMALL
GASTEIGER

@<TRIPOS>ATOM
      1  N         15.0060    8.4690   11.4020 N.3    19  GLN19      -0.1245
      2  CA        14.5760    9.3840   10.3690 C.3    19  GLN19       0.1566
      3  C         15.1570   10.7810   10.5640 C.2    19  GLN19       0.2260
      4  O         15.4570   11.5060    9.5990 O.2    19  GLN19      -0.2867
      5  CB        13.0400    9.4840   10.3180 C.3    19  GLN19       0.0367
      6  CG        12.2790   10.0200   11.5280 C.3    19  GLN19       0.0905
      7  CD        10.8100   10.1740   11.1940 C.2    19  GLN19       0.2608
      8  OE1       10.0400    9.2150   11.2800 O.2    19  GLN19      -0.2717
      9  NE2       10.3580   11.3490   10.7850 N.am   19  GLN19      -0.0878
     10  N         10.5990   14.4280    7.3290 N.3    23  GLY23      -0.1210
     11  CA         9.2820   13.8250    7.4610 C.3    23  GLY23       0.1956
     12  C          9.1350   12.6200    6.5310 C.2    23  GLY23       0.2613
     13  O          8.3110   12.6060    5.6150 O.2    23  GLY23      -0.2717
     14  N          9.9600   11.6130    6.7830 N.am   24  SER24      -0.1938
     15  CA        10.0780   10.4430    5.9560 C.3    24  SER24       0.2055
     16  C          9.5860    9.1840    6.6530 C.2    24  SER24       0.2643
     17  O          9.9590    8.0660    6.2520 O.2    24  SER24      -0.2714
     18  CB        11.5330   10.3290    5.5890 C.3    24  SER24       0.2130
     19  OG        12.2970   10.4230    6.7950 O.3    24  SER24      -0.2179
     20  N          8.7240    9.2840    7.6680 N.am   25  CYS25      -0.1953
     21  CA         8.2530    8.0960    8.3990 C.3    25  CYS25       0.1843
     22  C          7.5730    7.0680    7.4900 C.2    25  CYS25       0.2625
     23  O          7.6330    5.8510    7.6530 O.2    25  CYS25      -0.2714
     24  CB         7.2750    8.5090    9.4750 C.3    25  CYS25       0.0997
     25  SG         5.6790    9.0400    8.8070 S.3    25  CYS25      -0.0797
     26  N          6.9250    7.6110    6.4690 N.am   26  TRP26      -0.1974
     27  CA         6.2540    6.8550    5.4270 C.3    26  TRP26       0.1640
     28  C          7.2090    5.9060    4.6950 C.2    26  TRP26       0.2290
     29  O          6.8730    4.7720    4.3640 O.2    26  TRP26      -0.2864
     30  CB         5.6080    7.8630    4.4410 C.3    26  TRP26       0.0576
     31  CG         6.5710    8.7770    3.6810 C.ar   26  TRP26       0.0006
     32  CD1        7.0700    9.9300    4.2400 C.ar   26  TRP26       0.0946
     33  CD2        7.0660    8.5260    2.4310 C.ar   26  TRP26       0.0152
     34  NE1        7.9000   10.4170    3.3510 N.ar   26  TRP26      -0.2442
     35  CE2        7.9410    9.6150    2.2550 C.ar   26  TRP26       0.0810
     36  CE3        6.9130    7.5460    1.4440 C.ar   26  TRP26       0.0012
     37  CZ2        8.6770    9.7200    1.0700 C.ar   26  TRP26       0.0191
     38  CZ3        7.6520    7.6590    0.2630 C.ar   26  TRP26       0.0001
     39  CH2        8.5260    8.7380    0.0820 C.ar   26  TRP26       0.0015
     40  N          5.8200   10.3660   -6.3720 N.3    59  THR59      -0.1203
     41  CA         4.4010   10.1550   -6.1260 C.3    59  THR59       0.1994
     42  C          4.1300   10.6030   -4.6880 C.2    59  THR59       0.2618
     43  O          3.0040   10.9130   -4.3060 O.2    59  THR59      -0.2717
     44  CB         4.2270    8.6730   -6.4210 C.3    59  THR59       0.1784
     45  OG1        4.4580    8.6300   -7.8320 O.3    59  THR59      -0.2211
     46  CG2        2.9480    8.0460   -5.9750 C.3    59  THR59       0.0376
     47  N          5.1560   10.5840   -3.8330 N.am   60  ASP60      -0.1959
     48  CA         5.0250   11.1830   -2.5310 C.3    60  ASP60       0.1840
     49  C          5.7960   12.4830   -2.4640 C.2    60  ASP60       0.2622
     50  O          6.1320   13.0440   -3.5110 O.2    60  ASP60      -0.2715
     51  CB         5.4750   10.1600   -1.4960 C.3    60  ASP60       0.1450
     52  CG         4.3980    9.0890   -1.4310 C.2    60  ASP60       0.3671
     53  OD1        3.3100    9.3630   -0.9360 O.co2  60  ASP60      -0.2456
     54  OD2        4.5990    7.9950   -1.9340 O.co2  60  ASP60      -0.2456
     55  N          6.0280   13.0370   -1.2720 N.am   61  SER61      -0.1950
     56  CA         6.6150   14.3510   -1.1600 C.3    61  SER61       0.1924
     57  C          7.8440   14.4710   -0.2560 C.2    61  SER61       0.2314
     58  O          8.0020   15.4510    0.4870 O.2    61  SER61      -0.2863
     59  CB         5.4900   15.3040   -0.7030 C.3    61  SER61       0.2116
     60  OG         4.3210   15.2890   -1.5240 O.3    61  SER61      -0.2180
     61  N         10.6640   14.8290    2.3190 N.3    63  CYS63      -0.1221
     62  CA        10.5760   15.1800    3.7220 C.3    63  CYS63       0.1808
     63  C          9.2870   15.8650    4.1340 C.2    63  CYS63       0.2602
     64  O          9.1630   16.2710    5.2940 O.2    63  CYS63      -0.2717
     65  CB        11.7950   16.0370    4.0970 C.3    63  CYS63       0.0970
     66  SG        13.3280   15.0810    3.9950 S.3    63  CYS63      -0.0800
     67  N          8.2730   15.9890    3.2710 N.am   64  SER64      -0.1938
     68  CA         7.0010   16.5410    3.7060 C.3    64  SER64       0.2055
     69  C          5.9960   15.4240    3.9580 C.2    64  SER64       0.2644
     70  O          4.8560   15.6880    4.3340 O.2    64  SER64      -0.2714
     71  CB         6.4430   17.4970    2.6590 C.3    64  SER64       0.2130
     72  OG         7.3990   18.4970    2.3130 O.3    64  SER64      -0.2179
     73  N          6.3580   14.1590    3.8280 N.am   65  GLY65      -0.1939
     74  CA         5.4050   13.1210    4.1010 C.3    65  GLY65       0.2014
     75  C          5.0120   12.4220    2.8280 C.2    65  GLY65       0.2639
     76  O          5.4360   12.7630    1.7160 O.2    65  GLY65      -0.2714
     77  N          4.1920   11.4100    3.0380 N.am   66  GLY66      -0.1939
     78  CA         3.7760   10.5590    1.9660 C.3    66  GLY66       0.2014
     79  C          3.0160    9.3880    2.5280 C.2    66  GLY66       0.2639
     80  O          2.7740    9.2640    3.7270 O.2    66  GLY66      -0.2714
     81  N          2.7500    8.4240    1.6720 N.am   67  LEU67      -0.1963
     82  CA         1.9010    7.2990    1.9870 C.3    67  LEU67       0.1728
     83  C          2.6300    6.0580    1.5250 C.2    67  LEU67       0.2616
     84  O          3.2100    6.0000    0.4380 O.2    67  LEU67      -0.2715
     85  CB         0.5460    7.4540    1.2490 C.3    67  LEU67       0.0311
     86  CG        -0.2230    8.7950    1.4350 C.3    67  LEU67       0.0022
     87  CD1       -1.4200    8.8640    0.4930 C.3    67  LEU67       0.0001
     88  CD2       -0.6560    8.9280    2.8890 C.3    67  LEU67       0.0001
     89  N          2.4840    5.0250    2.3490 N.am   68  MET68      -0.1977
     90  CA         3.1710    3.7690    2.1210 C.3    68  MET68       0.1605
     91  C          2.6260    3.0840    0.8840 C.2    68  MET68       0.2287
     92  O          3.4130    2.6120    0.0660 O.2    68  MET68      -0.2864
     93  CB         3.0160    2.8590    3.3400 C.3    68  MET68       0.0413
     94  CG         3.7820    3.4010    4.5380 C.3    68  MET68       0.0598
     95  SD         2.7590    4.2070    5.7960 S.3    68  MET68      -0.1393
     96  CE         2.9580    5.9240    5.4810 C.3    68  MET68       0.0692
     97  N          1.4370    4.5400   -1.7740 N.3    70  ASN70      -0.1240
     98  CA         1.9830    5.2250   -2.9510 C.3    70  ASN70       0.1653
     99  C          3.4070    4.7760   -3.2070 C.2    70  ASN70       0.2266
    100  O          3.7530    4.4540   -4.3460 O.2    70  ASN70      -0.2867
    101  CB         2.0680    6.7260   -2.8030 C.3    70  ASN70       0.1155
    102  CG         0.8270    7.5750   -2.9590 C.2    70  ASN70       0.2627
    103  OD1       -0.2610    7.0930   -3.2500 O.2    70  ASN70      -0.2716
    104  ND2        0.9590    8.8780   -2.7470 N.am   70  ASN70      -0.0877
    105  N         -0.4370    3.0140    9.6170 N.3   138  ALA138     -0.1245
    106  CA        -0.4870    4.4420    9.9260 C.3   138  ALA138      0.1562
    107  C         -1.1200    4.5370   11.3020 C.2   138  ALA138      0.2260
    108  O         -2.0480    3.7850   11.6350 O.2   138  ALA138     -0.2867
    109  CB        -1.3660    5.2170    8.9780 C.3   138  ALA138      0.0290
    110  N         -4.5370   10.1530   11.9790 N.3   160  LEU160     -0.1231
    111  CA        -3.3730    9.3740   11.5590 C.3   160  LEU160      0.1693
    112  C         -2.3210   10.3520   11.0950 C.2   160  LEU160      0.2592
    113  O         -2.5820   11.0770   10.1320 O.2   160  LEU160     -0.2718
    114  CB        -3.7190    8.4410   10.3950 C.3   160  LEU160      0.0284
    115  CG        -4.8570    7.4480   10.5540 C.3   160  LEU160      0.0019
    116  CD1       -5.2910    7.0010    9.1730 C.3   160  LEU160      0.0001
    117  CD2       -4.4380    6.2950   11.4550 C.3   160  LEU160      0.0001
    118  N         -1.1450   10.3570   11.6940 N.am  161  ASP161     -0.1960
    119  CA        -0.0750   11.2670   11.3290 C.3   161  ASP161      0.1840
    120  C          1.2950   10.5840   11.1840 C.2   161  ASP161      0.2622
    121  O          2.2820   11.2280   10.7950 O.2   161  ASP161     -0.2715
    122  CB         0.0000   12.3650   12.4120 C.3   161  ASP161      0.1450
    123  CG         0.3520   11.8790   13.8110 C.2   161  ASP161      0.3671
    124  OD1        0.6930   10.7110   13.9680 O.co2 161  ASP161     -0.2456
    125  OD2        0.2860   12.6560   14.7580 O.co2 161  ASP161     -0.2456
    126  N          1.4540    9.2880   11.4620 N.am  162  HIS162     -0.1959
    127  CA         2.7680    8.6590   11.4170 C.3   162  HIS162      0.1787
    128  C          2.6580    7.2460   10.8570 C.2   162  HIS162      0.2620
    129  O          1.6340    6.5740   11.0320 O.2   162  HIS162     -0.2715
    130  CB         3.3190    8.6780   12.8550 C.3   162  HIS162      0.0785
    131  CG         4.7700    8.2520   13.0290 C.ar  162  HIS162      0.0821
    132  ND1        5.9270    8.6930   12.5290 N.ar  162  HIS162     -0.2267
    133  CD2        5.0840    7.1970   13.8350 C.ar  162  HIS162      0.1154
    134  CE1        6.9060    7.9520   12.9900 C.ar  162  HIS162      0.1986
    135  NE2        6.3820    7.0660   13.7720 N.ar  162  HIS162     -0.2212
    136  N          3.6980    6.8220   10.1220 N.am  163  GLY163     -0.1954
    137  CA         3.7730    5.4890    9.5540 C.3   163  GLY163      0.1869
    138  C          4.8300    4.6720   10.2790 C.2   163  GLY163      0.2309
    139  O          5.9470    5.1790   10.4570 O.2   163  GLY163     -0.2863
    140  N         -5.1180    2.0080    8.4280 N.3   208  GLU208     -0.1245
    141  CA        -4.4640    1.8860    7.1270 C.3   208  GLU208      0.1567
    142  C         -3.3240    0.8700    7.2020 C.2   208  GLU208      0.2260
    143  O         -2.1290    1.1910    7.2540 O.2   208  GLU208     -0.2867
    144  CB        -3.8940    3.2370    6.6710 C.3   208  GLU208      0.0388
    145  CG        -4.8330    4.3640    6.2090 C.3   208  GLU208      0.1160
    146  CD        -4.1230    5.6860    5.9300 C.2   208  GLU208      0.3649
    147  OE1       -2.8990    5.7430    5.9410 O.co2 208  GLU208     -0.2457
    148  OE2       -4.7520    6.7230    5.7350 O.co2 208  GLU208     -0.2457
@<TRIPOS>BOND
     1    45    44    1
     2    44    41    1
     3    44    46    1
     4    40    41    1
     5    41    42    1
     6    42    43    2
     7    42    47   am
     8   100    99    2
     9    47    48    1
    10    50    49    2
    11   103   102    2
    12    99    98    1
    13   102   101    1
    14   102   104   am
    15    98   101    1
    16    98    97    1
    17    48    49    1
    18    48    51    1
    19    49    55   am
    20    54    52   ar
    21    60    59    1
    22    51    52    1
    23    52    53   ar
    24    55    56    1
    25    56    59    1
    26    56    57    1
    27    57    58    2
    28    92    91    2
    29    39    38   ar
    30    39    37   ar
    31    38    36   ar
    32    84    83    2
    33    87    86    1
    34    91    90    1
    35    37    35   ar
    36    85    86    1
    37    85    82    1
    38    86    88    1
    39    36    33   ar
    40    83    82    1
    41    83    89   am
    42    81    82    1
    43    81    79   am
    44    76    75    2
    45    78    79    1
    46    78    77    1
    47    90    89    1
    48    90    93    1
    49    35    33   ar
    50    35    34   ar
    51    72    71    1
    52    61    62    1
    53    33    31   ar
    54    79    80    2
    55    71    68    1
    56    75    77   am
    57    75    74    1
    58    67    68    1
    59    67    63   am
    60    93    94    1
    61    34    32   ar
    62    31    32   ar
    63    31    30    1
    64    68    69    1
    65    62    65    1
    66    62    63    1
    67    73    69   am
    68    73    74    1
    69    69    70    2
    70    66    65    1
    71    63    64    2
    72    29    28    2
    73    30    27    1
    74    94    95    1
    75    28    27    1
    76    27    26    1
    77    96    95    1
    78    18    15    1
    79    18    19    1
    80    13    12    2
    81   148   146   ar
    82   146   147   ar
    83   146   145    1
    84    15    16    1
    85    15    14    1
    86   145   144    1
    87    17    16    2
    88    26    22   am
    89    12    14   am
    90    12    11    1
    91    16    20   am
    92   144   141    1
    93   141   142    1
    94   141   140    1
    95   142   143    2
    96    10    11    1
    97    22    23    2
    98    22    21    1
    99    20    21    1
   100    21    24    1
   101    25    24    1
   102   109   106    1
   103   116   115    1
   104   137   136    1
   105   137   138    1
   106     4     3    2
   107   105   106    1
   108   106   107    1
   109   136   128   am
   110   113   112    2
   111   138   139    2
   112     5     2    1
   113     5     6    1
   114     2     3    1
   115     2     1    1
   116   114   115    1
   117   114   111    1
   118   115   117    1
   119     9     7   am
   120   121   120    2
   121   128   129    2
   122   128   127    1
   123   112   111    1
   124   112   118   am
   125   120   119    1
   126   120   126   am
   127     7     8    2
   128     7     6    1
   129   107   108    2
   130   119   118    1
   131   119   122    1
   132   127   126    1
   133   127   130    1
   134   111   110    1
   135   122   123    1
   136   132   134   ar
   137   132   131   ar
   138   130   131    1
   139   134   135   ar
   140   131   133   ar
   141   135   133   ar
   142   123   124   ar
   143   123   125   ar
