@<TRIPOS>MOLECULE
tmp/2ainA00.pdb
 126 119 0 0 0
SMALL
GASTEIGER

@<TRIPOS>ATOM
      1  N         -2.3420   -6.7520   12.8720 N.3    16  GLY16      -0.1210
      2  CA        -1.4250   -6.6410   11.7490 C.3    16  GLY16       0.1956
      3  C         -2.1500   -6.6670   10.4150 C.2    16  GLY16       0.2612
      4  O         -3.3670   -6.8690   10.3700 O.2    16  GLY16      -0.2717
      5  N         -1.4100   -6.4580    9.3270 N.am   17  MET17      -0.1965
      6  CA        -2.0010   -6.4530    7.9910 C.3    17  MET17       0.1736
      7  C         -1.6950   -7.7490    7.2430 C.2    17  MET17       0.2617
      8  O         -2.5900   -8.3550    6.6540 O.2    17  MET17      -0.2715
      9  CB        -1.5030   -5.2450    7.1920 C.3    17  MET17       0.0427
     10  CG        -2.3900   -4.0200    7.3510 C.3    17  MET17       0.0599
     11  SD        -2.1390   -2.8010    6.0470 S.3    17  MET17      -0.1393
     12  CE        -0.5640   -2.0990    6.5330 C.3    17  MET17       0.0692
     13  N         -0.4320   -8.1710    7.2740 N.am   18  GLY18      -0.1940
     14  CA        -0.0410   -9.3950    6.5980 C.3    18  GLY18       0.2014
     15  C         -0.1880   -9.3070    5.0900 C.2    18  GLY18       0.2639
     16  O         -1.1810   -9.7720    4.5310 O.2    18  GLY18      -0.2714
     17  N          0.8040   -8.7090    4.4320 N.am   19  LEU19      -0.1963
     18  CA         0.7920   -8.5630    2.9740 C.3    19  LEU19       0.1728
     19  C          2.2020   -8.2980    2.4410 C.2    19  LEU19       0.2617
     20  O          3.1610   -8.2260    3.2090 O.2    19  LEU19      -0.2715
     21  CB        -0.1590   -7.4360    2.5570 C.3    19  LEU19       0.0311
     22  CG         0.1740   -6.0630    3.1350 C.3    19  LEU19       0.0022
     23  CD1        0.9350   -5.2280    2.1140 C.3    19  LEU19       0.0001
     24  CD2       -1.0920   -5.3470    3.5830 C.3    19  LEU19       0.0001
     25  N          2.3230   -8.1560    1.1230 N.am   20  SER20      -0.1936
     26  CA         3.6180   -7.9040    0.4930 C.3    20  SER20       0.2055
     27  C          3.5320   -6.7630   -0.5170 C.2    20  SER20       0.2643
     28  O          2.5050   -6.5790   -1.1730 O.2    20  SER20      -0.2714
     29  CB         4.1260   -9.1730   -0.1940 C.3    20  SER20       0.2130
     30  OG         4.4900  -10.1560    0.7590 O.3    20  SER20      -0.2179
     31  N          4.6200   -5.9970   -0.6350 N.am   21  ILE21      -0.1963
     32  CA         4.6640   -4.8670   -1.5620 C.3    21  ILE21       0.1727
     33  C          6.0370   -4.7280   -2.2250 C.2    21  ILE21       0.2616
     34  O          7.0540   -5.1420   -1.6630 O.2    21  ILE21      -0.2715
     35  CB         4.3070   -3.5420   -0.8520 C.3    21  ILE21       0.0290
     36  CG1        5.1060   -3.3870    0.4450 C.3    21  ILE21       0.0022
     37  CG2        2.8130   -3.4800   -0.5690 C.3    21  ILE21       0.0023
     38  CD1        6.5090   -2.8740    0.2250 C.3    21  ILE21       0.0001
     39  N          6.0550   -4.1410   -3.4270 N.am   22  VAL22      -0.1963
     40  CA         7.2990   -3.9440   -4.1720 C.3    22  VAL22       0.1727
     41  C          7.3700   -2.5410   -4.7810 C.2    22  VAL22       0.2616
     42  O          6.3900   -2.0450   -5.3400 O.2    22  VAL22      -0.2715
     43  CB         7.4570   -4.9920   -5.2970 C.3    22  VAL22       0.0290
     44  CG1        8.8030   -4.8450   -5.9960 C.3    22  VAL22       0.0023
     45  CG2        7.2910   -6.4010   -4.7490 C.3    22  VAL22       0.0023
     46  N          8.5420   -1.9130   -4.6660 N.am   23  ALA23      -0.1963
     47  CA         8.7610   -0.5690   -5.2000 C.3    23  ALA23       0.1728
     48  C          9.1640   -0.6220   -6.6740 C.2    23  ALA23       0.2616
     49  O         10.0630   -1.3760   -7.0500 O.2    23  ALA23      -0.2715
     50  CB         9.8290    0.1530   -4.3900 C.3    23  ALA23       0.0334
     51  N          8.4960    0.1820   -7.5050 N.am   24  ALA24      -0.1963
     52  CA         8.7920    0.2220   -8.9370 C.3    24  ALA24       0.1728
     53  C          8.8560    1.6590   -9.4540 C.2    24  ALA24       0.2616
     54  O          8.0810    2.5170   -9.0260 O.2    24  ALA24      -0.2715
     55  CB         7.7550   -0.5730   -9.7180 C.3    24  ALA24       0.0334
     56  N          9.7840    1.9080  -10.3790 N.am   25  LYS25      -0.1977
     57  CA         9.9590    3.2380  -10.9670 C.3    25  LYS25       0.1596
     58  C          9.7960    3.1890  -12.4870 C.2    25  LYS25       0.2287
     59  O          9.5470    2.1260  -13.0620 O.2    25  LYS25      -0.2864
     60  CB        11.3380    3.8030  -10.6050 C.3    25  LYS25       0.0298
     61  CG        11.2940    5.2200  -10.0520 C.3    25  LYS25       0.0038
     62  CD        12.4320    6.0690  -10.5970 C.3    25  LYS25       0.0206
     63  CE        12.8280    7.1660   -9.6200 C.3    25  LYS25       0.1093
     64  NZ        13.8900    8.0520  -10.1740 N.3    25  LYS25      -0.1314
     65  N          8.3690    7.0270   -5.8270 N.3    32  LEU32      -0.1245
     66  CA         8.3040    5.5680   -5.8550 C.3    32  LEU32       0.1561
     67  C          6.9490    5.0720   -5.3500 C.2    32  LEU32       0.2260
     68  O          6.4760    5.4980   -4.2940 O.2    32  LEU32      -0.2867
     69  CB         9.4310    4.9700   -5.0050 C.3    32  LEU32       0.0270
     70  CG        10.0690    3.6950   -5.5650 C.3    32  LEU32       0.0019
     71  CD1       10.5530    3.9150   -6.9920 C.3    32  LEU32       0.0001
     72  CD2       11.2190    3.2440   -4.6740 C.3    32  LEU32       0.0001
     73  N          2.4770   -7.1440   -3.9100 N.3    37  LYS37      -0.1245
     74  CA         3.0220   -8.3810   -4.4690 C.3    37  LYS37       0.1561
     75  C          2.1880   -9.5920   -4.0470 C.2    37  LYS37       0.2260
     76  O          1.9880  -10.5170   -4.8350 O.2    37  LYS37      -0.2867
     77  CB         4.4740   -8.5710   -4.0260 C.3    37  LYS37       0.0271
     78  CG         5.3710   -9.1450   -5.1120 C.3    37  LYS37       0.0035
     79  CD         6.6870   -9.6480   -4.5420 C.3    37  LYS37       0.0206
     80  CE         6.6880  -11.1610   -4.3770 C.3    37  LYS37       0.1093
     81  NZ         8.0520  -11.6940   -4.0970 N.3    37  LYS37      -0.1314
     82  N         -0.9300  -11.8630    2.9120 N.3    40  VAL40      -0.1245
     83  CA        -0.8160  -12.9320    3.9020 C.3    40  VAL40       0.1561
     84  C         -2.1860  -13.3020    4.4690 C.2    40  VAL40       0.2260
     85  O         -3.0570  -12.4450    4.6310 O.2    40  VAL40      -0.2867
     86  CB         0.1270  -12.5350    5.0600 C.3    40  VAL40       0.0252
     87  CG1        0.3760  -13.7150    5.9870 C.3    40  VAL40       0.0019
     88  CG2        1.4450  -11.9940    4.5230 C.3    40  VAL40       0.0019
     89  N         10.9000    1.7710    0.1930 N.3    70  GLN70      -0.1231
     90  CA        10.0880    0.6670    0.7040 C.3    70  GLN70       0.1698
     91  C         10.1730    0.5630    2.2250 C.2    70  GLN70       0.2592
     92  O          9.1630    0.3420    2.8920 O.2    70  GLN70      -0.2718
     93  CB        10.5220   -0.6580    0.0800 C.3    70  GLN70       0.0381
     94  CG         9.3960   -1.6680   -0.0130 C.3    70  GLN70       0.0905
     95  CD         8.8660   -1.8060   -1.4230 C.2    70  GLN70       0.2608
     96  OE1        9.3490   -2.6260   -2.2000 O.2    70  GLN70      -0.2717
     97  NE2        7.8690   -0.9940   -1.7610 N.am   70  GLN70      -0.0878
     98  N         11.3800    0.7220    2.7670 N.am   71  GLU71      -0.1979
     99  CA        11.5870    0.6460    4.2110 C.3    71  GLU71       0.1602
    100  C         10.7380    1.6840    4.9420 C.2    71  GLU71       0.2287
    101  O         10.0280    1.3530    5.8910 O.2    71  GLU71      -0.2864
    102  CB        13.0640    0.8510    4.5500 C.3    71  GLU71       0.0415
    103  CG        13.9530   -0.3140    4.1460 C.3    71  GLU71       0.1163
    104  CD        14.4200   -1.1290    5.3360 C.2    71  GLU71       0.3649
    105  OE1       15.4540   -0.7660    5.9360 O.co2  71  GLU71      -0.2457
    106  OE2       13.7500   -2.1290    5.6680 O.co2  71  GLU71      -0.2457
    107  N          6.7440    0.8370    3.9530 N.3    74  ALA74      -0.1245
    108  CA         6.1980   -0.3090    4.6820 C.3    74  ALA74       0.1562
    109  C          6.1970   -0.0580    6.1890 C.2    74  ALA74       0.2260
    110  O          5.1990   -0.3100    6.8660 O.2    74  ALA74      -0.2867
    111  CB         6.9780   -1.5760    4.3540 C.3    74  ALA74       0.0290
    112  N          3.4730    2.3010    7.1110 N.3    77  MET77      -0.1230
    113  CA         2.1770    1.6430    6.9180 C.3    77  MET77       0.1702
    114  C          1.8060    0.7860    8.1280 C.2    77  MET77       0.2593
    115  O          0.7010    0.9020    8.6570 O.2    77  MET77      -0.2718
    116  CB         2.1900    0.7860    5.6520 C.3    77  MET77       0.0401
    117  CG         2.1590    1.5910    4.3630 C.3    77  MET77       0.0596
    118  SD         3.0020    0.7540    3.0050 S.3    77  MET77      -0.1393
    119  CE         1.9870   -0.7120    2.8300 C.3    77  MET77       0.0692
    120  N          2.7350   -0.0580    8.5770 N.am   78  THR78      -0.1953
    121  CA         2.4870   -0.9010    9.7450 C.3    78  THR78       0.1897
    122  C          2.4370   -0.0410   11.0090 C.2    78  THR78       0.2313
    123  O          1.7690   -0.3880   11.9840 O.2    78  THR78      -0.2863
    124  CB         3.5650   -1.9830    9.8820 C.3    78  THR78       0.1794
    125  OG1        3.2810   -2.8400   10.9750 O.3    78  THR78      -0.2208
    126  CG2        4.9650   -1.4350   10.0830 C.3    78  THR78       0.0378
@<TRIPOS>BOND
     1    59    58    2
     2    58    57    1
     3    57    60    1
     4    57    56    1
     5    60    61    1
     6    62    61    1
     7    62    63    1
     8    56    53   am
     9    64    63    1
    10    55    52    1
    11    53    54    2
    12    53    52    1
    13    52    51    1
    14    51    48   am
    15    49    48    2
    16    71    70    1
    17    48    47    1
    18    44    43    1
    19    66    65    1
    20    66    67    1
    21    66    69    1
    22    70    69    1
    23    70    72    1
    24    67    68    2
    25    42    41    2
    26    43    45    1
    27    43    40    1
    28    47    46    1
    29    47    50    1
    30    78    79    1
    31    78    77    1
    32    76    75    2
    33    41    46   am
    34    41    40    1
    35    79    80    1
    36    74    75    1
    37    74    77    1
    38    74    73    1
    39    80    81    1
    40    40    39    1
    41    39    33   am
    42    33    34    2
    43    33    32    1
    44    96    95    2
    45    97    95   am
    46    32    35    1
    47    32    31    1
    48    95    94    1
    49    28    27    2
    50    35    37    1
    51    35    36    1
    52    31    27   am
    53    27    26    1
    54    29    26    1
    55    29    30    1
    56    94    93    1
    57    93    90    1
    58    89    90    1
    59    38    36    1
    60    26    25    1
    61    90    91    1
    62    25    19   am
    63    23    22    1
    64    91    98   am
    65    91    92    2
    66    19    18    1
    67    19    20    2
    68    21    18    1
    69    21    22    1
    70    98    99    1
    71   119   118    1
    72    82    83    1
    73    18    17    1
    74   118   117    1
    75    22    24    1
    76    83    84    1
    77    83    86    1
    78   107   108    1
    79   103   102    1
    80   103   104    1
    81    99   102    1
    82    99   100    1
    83   111   108    1
    84   117   116    1
    85    17    15   am
    86    84    85    2
    87    88    86    1
    88    16    15    2
    89   108   109    1
    90   100   101    2
    91    86    87    1
    92    15    14    1
    93   104   106   ar
    94   104   105   ar
    95   116   113    1
    96    11    12    1
    97    11    10    1
    98   109   110    2
    99    14    13    1
   100     8     7    2
   101   113   112    1
   102   113   114    1
   103     9    10    1
   104     9     6    1
   105     7    13   am
   106     7     6    1
   107     6     5    1
   108   114   120   am
   109   114   115    2
   110   120   121    1
   111     5     3   am
   112   121   124    1
   113   121   122    1
   114   124   126    1
   115   124   125    1
   116     4     3    2
   117     3     2    1
   118   122   123    2
   119     2     1    1
