@<TRIPOS>MOLECULE
tmp/2aioA00.pdb
 156 154 0 0 0
SMALL
GASTEIGER

@<TRIPOS>ATOM
      1  N         27.0350    4.5040   47.8440 N.3     8  ARG8       -0.1245
      2  CA        26.2780    3.5450   47.0610 C.3     8  ARG8        0.1563
      3  C         27.1240    2.3030   46.8100 C.2     8  ARG8        0.2260
      4  O         28.2890    2.3990   46.4070 O.2     8  ARG8       -0.2867
      5  CB        25.8130    4.1950   45.7530 C.3     8  ARG8        0.0307
      6  CG        25.5400    3.2390   44.6030 C.3     8  ARG8        0.0489
      7  CD        24.7460    3.9010   43.4720 C.3     8  ARG8        0.2205
      8  NE        23.3160    3.5970   43.5770 N.pl3   8  ARG8       -0.0865
      9  CZ        22.3780    4.4740   43.9420 C.cat   8  ARG8        0.5346
     10  NH1       22.7040    5.7370   44.2290 N.pl3   8  ARG8        0.1354
     11  NH2       21.1060    4.0900   44.0140 N.pl3   8  ARG8        0.1354
     12  N         28.3260   -1.1640   44.9650 N.3    10  TYR10      -0.1227
     13  CA        28.4420   -1.6860   43.6090 C.3    10  TYR10       0.1736
     14  C         27.5610   -2.9270   43.4990 C.2    10  TYR10       0.2596
     15  O         27.9240   -4.0190   43.9570 O.2    10  TYR10      -0.2718
     16  CB        29.9040   -2.0050   43.2740 C.3    10  TYR10       0.0548
     17  CG        30.1380   -2.6560   41.9280 C.ar   10  TYR10      -0.0200
     18  CD1       29.5540   -2.1550   40.7630 C.ar   10  TYR10      -0.0009
     19  CD2       30.9860   -3.7580   41.8140 C.ar   10  TYR10      -0.0009
     20  CE1       29.7940   -2.7600   39.5230 C.ar   10  TYR10       0.0417
     21  CE2       31.2270   -4.3640   40.5900 C.ar   10  TYR10       0.0417
     22  CZ        30.6270   -3.8650   39.4450 C.ar   10  TYR10       0.1957
     23  OH        30.8890   -4.4870   38.2410 O.3    10  TYR10      -0.2866
     24  N         26.3960   -2.7390   42.8900 N.am   11  THR11      -0.1939
     25  CA        25.4340   -3.8190   42.7240 C.3    11  THR11       0.2028
     26  C         25.4670   -4.3190   41.2850 C.2    11  THR11       0.2642
     27  O         25.7880   -3.5600   40.3540 O.2    11  THR11      -0.2714
     28  CB        24.0200   -3.3560   43.1020 C.3    11  THR11       0.1808
     29  OG1       23.6760   -2.2150   42.3110 O.3    11  THR11      -0.2208
     30  CG2       23.9510   -2.9850   44.5830 C.3    11  THR11       0.0379
     31  N         25.1420   -5.5950   41.1140 N.am   12  VAL12      -0.1977
     32  CA        25.3030   -6.2810   39.8420 C.3    12  VAL12       0.1596
     33  C         24.0910   -7.1960   39.6030 C.2    12  VAL12       0.2287
     34  O         23.3890   -7.5730   40.5530 O.2    12  VAL12      -0.2864
     35  CB        26.6150   -7.1290   39.8040 C.3    12  VAL12       0.0276
     36  CG1       27.8770   -6.2410   39.9030 C.3    12  VAL12       0.0022
     37  CG2       26.6310   -8.1840   40.9150 C.3    12  VAL12       0.0022
     38  N         25.3390  -12.7340   37.9870 N.3    16  TRP16      -0.1241
     39  CA        26.7790  -12.5640   38.2230 C.3    16  TRP16       0.1605
     40  C         27.1700  -13.1130   39.5960 C.2    16  TRP16       0.2264
     41  O         28.3450  -13.4210   39.8400 O.2    16  TRP16      -0.2867
     42  CB        27.1750  -11.0880   38.1980 C.3    16  TRP16       0.0550
     43  CG        26.9920  -10.3640   36.8840 C.ar   16  TRP16       0.0003
     44  CD1       26.1470  -10.6930   35.8480 C.ar   16  TRP16       0.0946
     45  CD2       27.6430   -9.1410   36.4980 C.ar   16  TRP16       0.0152
     46  NE1       26.2500   -9.7500   34.8390 N.ar   16  TRP16      -0.2442
     47  CE2       27.1550   -8.7900   35.2160 C.ar   16  TRP16       0.0810
     48  CE3       28.5930   -8.3090   37.1160 C.ar   16  TRP16       0.0012
     49  CZ2       27.5940   -7.6410   34.5350 C.ar   16  TRP16       0.0191
     50  CZ3       29.0280   -7.1530   36.4370 C.ar   16  TRP16       0.0001
     51  CH2       28.5260   -6.8390   35.1600 C.ar   16  TRP16       0.0015
     52  N         41.6160   -8.1410   34.2870 N.3    83  HIS83      -0.1241
     53  CA        41.8100   -6.7410   34.6970 C.3    83  HIS83       0.1621
     54  C         41.3190   -6.5290   36.1200 C.2    83  HIS83       0.2264
     55  O         40.5100   -7.3220   36.6120 O.2    83  HIS83      -0.2867
     56  CB        41.1590   -5.7650   33.6880 C.3    83  HIS83       0.0745
     57  CG        39.6610   -5.7680   33.6860 C.ar   83  HIS83       0.0817
     58  ND1       38.9110   -6.6260   32.9080 N.ar   83  HIS83      -0.2268
     59  CD2       38.7710   -4.9690   34.3230 C.ar   83  HIS83       0.1154
     60  CE1       37.6240   -6.3730   33.0850 C.ar   83  HIS83       0.1986
     61  NE2       37.5120   -5.3830   33.9520 N.ar   83  HIS83      -0.2212
     62  N         39.2880   -4.7520   37.9360 N.3    85  HIS85      -0.1226
     63  CA        37.9970   -4.2170   38.3780 C.3    85  HIS85       0.1752
     64  C         37.3440   -5.1150   39.4290 C.2    85  HIS85       0.2596
     65  O         37.6330   -6.3140   39.4940 O.2    85  HIS85      -0.2718
     66  CB        37.0480   -4.0330   37.1750 C.3    85  HIS85       0.0759
     67  CG        37.2560   -2.7340   36.4470 C.ar   85  HIS85       0.0818
     68  ND1       36.7060   -2.4760   35.2090 N.ar   85  HIS85      -0.2268
     69  CD2       37.9390   -1.6160   36.7970 C.ar   85  HIS85       0.1154
     70  CE1       37.0460   -1.2560   34.8240 C.ar   85  HIS85       0.1986
     71  NE2       37.8000   -0.7130   35.7690 N.ar   85  HIS85      -0.2212
     72  N         36.4430   -4.5290   40.2150 N.am   86  ALA86      -0.1966
     73  CA        35.7940   -5.1970   41.3570 C.3    86  ALA86       0.1728
     74  C         35.0850   -6.4860   40.9960 C.2    86  ALA86       0.2616
     75  O         34.9910   -7.3860   41.8300 O.2    86  ALA86      -0.2715
     76  CB        34.8050   -4.2410   42.0710 C.3    86  ALA86       0.0334
     77  N         34.5620   -6.5650   39.7720 N.am   87  ASP87      -0.1957
     78  CA        33.8260   -7.7480   39.3410 C.3    87  ASP87       0.1840
     79  C         34.7090   -8.8620   38.7870 C.2    87  ASP87       0.2622
     80  O         34.2040   -9.8930   38.3440 O.2    87  ASP87      -0.2715
     81  CB        32.6930   -7.3910   38.3600 C.3    87  ASP87       0.1450
     82  CG        33.1850   -6.6760   37.1040 C.2    87  ASP87       0.3671
     83  OD1       34.1750   -5.9200   37.1830 O.co2  87  ASP87      -0.2456
     84  OD2       32.5570   -6.8600   36.0380 O.co2  87  ASP87      -0.2456
     85  N         36.0290   -8.6750   38.8390 N.am   88  HIS88      -0.1973
     86  CA        36.9520   -9.7110   38.3930 C.3    88  HIS88       0.1656
     87  C         38.0600   -9.9990   39.4030 C.2    88  HIS88       0.2291
     88  O         38.4870  -11.1530   39.5350 O.2    88  HIS88      -0.2864
     89  CB        37.5150   -9.3810   36.9980 C.3    88  HIS88       0.0771
     90  CG        36.4460   -9.0720   36.0000 C.ar   88  HIS88       0.0820
     91  ND1       35.5600  -10.0280   35.5380 N.ar   88  HIS88      -0.2267
     92  CD2       36.0770   -7.9010   35.4270 C.ar   88  HIS88       0.1154
     93  CE1       34.7040   -9.4550   34.7060 C.ar   88  HIS88       0.1986
     94  NE2       34.9910   -8.1660   34.6300 N.ar   88  HIS88      -0.2212
     95  N         35.3540    5.3050   36.1240 N.3   123  PHE123     -0.1241
     96  CA        34.3010    5.0080   37.0940 C.3   123  PHE123      0.1605
     97  C         34.5000    5.6860   38.4580 C.2   123  PHE123      0.2264
     98  O         33.7720    5.3880   39.4180 O.2   123  PHE123     -0.2867
     99  CB        34.1690    3.4830   37.2640 C.3   123  PHE123      0.0534
    100  CG        33.6150    2.7710   36.0410 C.ar  123  PHE123     -0.0203
    101  CD1       32.4250    3.1980   35.4420 C.ar  123  PHE123     -0.0042
    102  CD2       34.2800    1.6750   35.4940 C.ar  123  PHE123     -0.0042
    103  CE1       31.9130    2.5350   34.3240 C.ar  123  PHE123     -0.0003
    104  CE2       33.7720    1.0010   34.3770 C.ar  123  PHE123     -0.0003
    105  CZ        32.5890    1.4440   33.7800 C.ar  123  PHE123     -0.0000
    106  N         33.4410    4.6310   42.4260 N.3   126  GLY126     -0.1210
    107  CA        32.2100    3.8520   42.5350 C.3   126  GLY126      0.1956
    108  C         32.3830    2.3460   42.6510 C.2   126  GLY126      0.2611
    109  O         31.4730    1.6410   43.1140 O.2   126  GLY126     -0.2717
    110  N         33.5420    1.8430   42.2280 N.am  127  ILE127     -0.1979
    111  CA        33.7960    0.4000   42.2180 C.3   127  ILE127      0.1595
    112  C         35.0260    0.0130   43.0620 C.2   127  ILE127      0.2287
    113  O         35.7790   -0.8890   42.7120 O.2   127  ILE127     -0.2864
    114  CB        33.8600   -0.1800   40.7880 C.3   127  ILE127      0.0276
    115  CG1       34.8540    0.5880   39.8960 C.3   127  ILE127      0.0022
    116  CG2       32.4710   -0.1660   40.1290 C.3   127  ILE127      0.0022
    117  CD1       35.0310   -0.0340   38.5270 C.3   127  ILE127      0.0001
    118  N         40.0130   -1.4930   27.9670 N.3   159  HIS159     -0.1241
    119  CA        39.0040   -1.5700   29.0170 C.3   159  HIS159      0.1621
    120  C         39.5730   -1.0840   30.3750 C.2   159  HIS159      0.2264
    121  O         38.9330   -0.3300   31.1110 O.2   159  HIS159     -0.2867
    122  CB        38.4290   -2.9830   29.1310 C.3   159  HIS159      0.0745
    123  CG        37.3680   -3.0840   30.1750 C.ar  159  HIS159      0.0817
    124  ND1       36.0710   -2.6740   29.9530 N.ar  159  HIS159     -0.2268
    125  CD2       37.4320   -3.4610   31.4750 C.ar  159  HIS159      0.1154
    126  CE1       35.3680   -2.8470   31.0620 C.ar  159  HIS159      0.1986
    127  NE2       36.1760   -3.3000   32.0060 N.ar  159  HIS159     -0.2212
    128  N         37.9960   -8.2910   28.6620 N.3   184  SER184     -0.1217
    129  CA        36.9400   -7.4350   28.1500 C.3   184  SER184      0.1889
    130  C         37.4680   -6.4260   27.1170 C.2   184  SER184      0.2288
    131  O         38.6060   -5.9370   27.2180 O.2   184  SER184     -0.2866
    132  CB        36.2910   -6.6700   29.3130 C.3   184  SER184      0.2089
    133  OG        35.8090   -7.5640   30.3130 O.3   184  SER184     -0.2183
    134  N         35.0350   -4.0250   26.0490 N.3   186  SER186     -0.1217
    135  CA        33.9840   -3.0280   26.1790 C.3   186  SER186      0.1889
    136  C         34.5510   -1.7020   26.6690 C.2   186  SER186      0.2288
    137  O         35.6590   -1.6540   27.2280 O.2   186  SER186     -0.2866
    138  CB        32.9580   -3.5070   27.1970 C.3   186  SER186      0.2089
    139  OG        33.5960   -3.5940   28.4650 O.3   186  SER186     -0.2183
    140  N         32.2100    0.7460   28.5740 N.3   188  PRO188     -0.2116
    141  CA        30.8510    1.1480   28.9680 C.3   188  PRO188      0.1372
    142  C         30.7660    2.5480   29.5580 C.2   188  PRO188      0.2244
    143  O         31.2530    2.7870   30.6730 O.2   188  PRO188     -0.2868
    144  CB        30.4660    0.0930   30.0360 C.3   188  PRO188      0.0268
    145  CG        31.4100   -1.0600   29.7600 C.3   188  PRO188      0.0207
    146  CD        32.6910   -0.3580   29.4270 C.3   188  PRO188      0.0892
    147  N         33.3500  -11.9170   31.3020 N.3   224  HIS224     -0.1241
    148  CA        31.8910  -12.0820   31.2140 C.3   224  HIS224      0.1621
    149  C         31.6430  -13.1180   30.1290 C.2   224  HIS224      0.2264
    150  O         31.9510  -12.8660   28.9510 O.2   224  HIS224     -0.2867
    151  CB        31.2160  -10.7560   30.8760 C.3   224  HIS224      0.0745
    152  CG        31.4500   -9.7020   31.9060 C.ar  224  HIS224      0.0817
    153  ND1       30.6140   -9.5200   32.9890 N.ar  224  HIS224     -0.2268
    154  CD2       32.4610   -8.8130   32.0510 C.ar  224  HIS224      0.1154
    155  CE1       31.0980   -8.5490   33.7490 C.ar  224  HIS224      0.1986
    156  NE2       32.2190   -8.1090   33.2020 N.ar  224  HIS224     -0.2212
@<TRIPOS>BOND
     1   134   135    1
     2   135   136    1
     3   135   138    1
     4   136   137    2
     5   130   131    2
     6   130   129    1
     7   138   139    1
     8   118   119    1
     9   129   128    1
    10   129   132    1
    11   140   141    1
    12   140   146    1
    13   150   149    2
    14   141   142    1
    15   141   144    1
    16   119   122    1
    17   119   120    1
    18   122   123    1
    19   132   133    1
    20   146   145    1
    21   142   143    2
    22   145   144    1
    23   124   123   ar
    24   124   126   ar
    25   149   148    1
    26   123   125   ar
    27   120   121    2
    28   151   148    1
    29   151   152    1
    30   126   127   ar
    31   148   147    1
    32   125   127   ar
    33   152   154   ar
    34   152   153   ar
    35   154   156   ar
    36    58    60   ar
    37    58    57   ar
    38   153   155   ar
    39    60    61   ar
    40   156   155   ar
    41    57    56    1
    42    57    59   ar
    43    56    53    1
    44   105   103   ar
    45   105   104   ar
    46    61    59   ar
    47    52    53    1
    48   103   101   ar
    49   104   102   ar
    50    49    51   ar
    51    49    47   ar
    52    94    93   ar
    53    94    92   ar
    54    53    54    1
    55    93    91   ar
    56    70    68   ar
    57    70    71   ar
    58    46    47   ar
    59    46    44   ar
    60    51    50   ar
    61    68    67   ar
    62    47    45   ar
    63    92    90   ar
    64   101   100   ar
    65   102   100   ar
    66    91    90   ar
    67    71    69   ar
    68    44    43   ar
    69    90    89    1
    70    84    82   ar
    71   100    99    1
    72    54    55    2
    73    95    96    1
    74    50    48   ar
    75    67    69   ar
    76    67    66    1
    77    45    43   ar
    78    45    48   ar
    79    43    42    1
    80    89    86    1
    81    96    99    1
    82    96    97    1
    83    82    83   ar
    84    82    81    1
    85    66    63    1
    86    62    63    1
    87    38    39    1
    88    42    39    1
    89    39    40    1
    90    23    22    1
    91    80    79    2
    92    81    78    1
    93    63    64    1
    94    86    85    1
    95    86    87    1
    96    97    98    2
    97   117   115    1
    98    79    85   am
    99    79    78    1
   100    78    77    1
   101    87    88    2
   102    64    65    2
   103    64    72   am
   104    22    20   ar
   105    22    21   ar
   106    20    18   ar
   107    40    41    2
   108    33    32    1
   109    33    34    2
   110    77    74   am
   111    35    32    1
   112    35    36    1
   113    35    37    1
   114    32    31    1
   115   115   114    1
   116   116   114    1
   117    72    73    1
   118    27    26    2
   119    21    19   ar
   120    18    17   ar
   121   114   111    1
   122    74    73    1
   123    74    75    2
   124    31    26   am
   125    26    25    1
   126    73    76    1
   127    19    17   ar
   128    17    16    1
   129   111   110    1
   130   111   112    1
   131   110   108   am
   132    29    28    1
   133   106   107    1
   134   107   108    1
   135   108   109    2
   136   113   112    2
   137    25    24    1
   138    25    28    1
   139    24    14   am
   140    28    30    1
   141    16    13    1
   142     7     8    1
   143     7     6    1
   144    14    13    1
   145    14    15    2
   146     8     9    2
   147    13    12    1
   148     9    11    1
   149     9    10    1
   150     6     5    1
   151     5     2    1
   152     4     3    2
   153     3     2    1
   154     2     1    1
