@<TRIPOS>MOLECULE
tmp/2aiqA00.pdb
 92 87 0 0 0
SMALL
GASTEIGER

@<TRIPOS>ATOM
      1  N          8.6900   -6.2850   21.8970 N.3   171  ASP171     -0.1225
      2  CA         9.2800   -5.0290   21.4730 C.3   171  ASP171      0.1805
      3  C         10.1850   -5.3480   20.3160 C.2   171  ASP171      0.2598
      4  O         10.6180   -6.4870   20.1350 O.2   171  ASP171     -0.2718
      5  CB        10.0930   -4.4260   22.6420 C.3   171  ASP171      0.1424
      6  CG        10.4640   -2.9560   22.4520 C.2   171  ASP171      0.3668
      7  OD1       10.0170   -2.3250   21.4750 O.co2 171  ASP171     -0.2456
      8  OD2       11.2380   -2.4390   23.2980 O.co2 171  ASP171     -0.2456
      9  N         10.4870   -4.3330   19.5260 N.am  172  THR172     -0.1939
     10  CA        11.6280   -4.4360   18.6330 C.3   172  THR172      0.2028
     11  C         12.9040   -4.2340   19.4360 C.2   172  THR172      0.2642
     12  O         12.8720   -3.9000   20.6290 O.2   172  THR172     -0.2714
     13  CB        11.5600   -3.3940   17.5280 C.3   172  THR172      0.1808
     14  OG1       11.1950   -2.1350   18.0990 O.3   172  THR172     -0.2208
     15  CG2       10.5280   -3.7840   16.4930 C.3   172  THR172      0.0379
     16  N         14.0370   -4.4280   18.7770 N.am  173  CYS173     -0.1953
     17  CA        15.2970   -4.2400   19.4480 C.3   173  CYS173      0.1843
     18  C         16.3980   -3.9870   18.4390 C.2   173  CYS173      0.2625
     19  O         16.1290   -3.8080   17.2490 O.2   173  CYS173     -0.2714
     20  CB        15.5850   -5.4620   20.3110 C.3   173  CYS173      0.0997
     21  SG        16.6960   -5.1400   21.7030 S.3   173  CYS173     -0.0797
     22  N         17.6350   -3.9430   18.9240 N.am  174  LYS174     -0.1977
     23  CA        18.7830   -3.6750   18.0690 C.3   174  LYS174      0.1596
     24  C         18.7930   -4.6170   16.8740 C.2   174  LYS174      0.2287
     25  O         18.6720   -5.8250   17.0220 O.2   174  LYS174     -0.2864
     26  CB        20.0710   -3.8290   18.8800 C.3   174  LYS174      0.0298
     27  CG        20.2610   -2.7030   19.8810 C.3   174  LYS174      0.0038
     28  CD        21.4080   -1.8040   19.4230 C.3   174  LYS174      0.0206
     29  CE        21.1880   -0.3640   19.7990 C.3   174  LYS174      0.1093
     30  NZ        22.0330    0.5090   18.9480 N.3   174  LYS174     -0.1314
     31  N         15.8830   -1.8670   13.6270 N.3   177  SER177     -0.1217
     32  CA        15.6930   -0.4930   13.1790 C.3   177  SER177      0.1889
     33  C         15.5520   -0.4500   11.6800 C.2   177  SER177      0.2288
     34  O         16.1320   -1.2700   10.9540 O.2   177  SER177     -0.2866
     35  CB        16.8280    0.4290   13.6170 C.3   177  SER177      0.2089
     36  OG        16.7910    0.6500   15.0110 O.3   177  SER177     -0.2183
     37  N         11.0080    1.7360   12.3780 N.3   191  LEU191     -0.1231
     38  CA        11.6090    1.7420   13.7090 C.3   191  LEU191      0.1693
     39  C         12.8280    2.6420   13.7400 C.2   191  LEU191      0.2593
     40  O         13.7310    2.5250   12.9210 O.2   191  LEU191     -0.2718
     41  CB        12.0210    0.3390   14.1380 C.3   191  LEU191      0.0284
     42  CG        12.7260    0.2900   15.5050 C.3   191  LEU191      0.0019
     43  CD1       11.8270    0.8250   16.6200 C.3   191  LEU191      0.0001
     44  CD2       13.1300   -1.1310   15.7550 C.3   191  LEU191      0.0001
     45  N         12.8500    3.5250   14.7340 N.am  192  SER192     -0.1938
     46  CA        13.9880    4.4020   14.9160 C.3   192  SER192      0.2055
     47  C         14.7820    4.0470   16.1640 C.2   192  SER192      0.2643
     48  O         15.9420    3.6470   16.0950 O.2   192  SER192     -0.2714
     49  CB        13.4910    5.8380   15.0100 C.3   192  SER192      0.2130
     50  OG        14.5710    6.7030   15.2790 O.3   192  SER192     -0.2179
     51  N         14.1530    4.2160   17.3130 N.am  193  VAL193     -0.1963
     52  CA        14.8650    4.1050   18.5730 C.3   193  VAL193      0.1727
     53  C         13.9570    3.5220   19.6320 C.2   193  VAL193      0.2617
     54  O         12.7590    3.3750   19.4370 O.2   193  VAL193     -0.2715
     55  CB        15.4230    5.4870   19.0720 C.3   193  VAL193      0.0290
     56  CG1       16.4980    6.0410   18.1350 C.3   193  VAL193      0.0023
     57  CG2       14.3040    6.4950   19.2520 C.3   193  VAL193      0.0023
     58  N         14.5460    3.1970   20.7610 N.am  194  GLY194     -0.1940
     59  CA        13.7700    2.7150   21.8770 C.3   194  GLY194      0.2014
     60  C         14.7050    2.4110   23.0220 C.2   194  GLY194      0.2639
     61  O         15.9110    2.5700   22.9060 O.2   194  GLY194     -0.2714
     62  N         14.1310    1.9500   24.1220 N.am  195  GLY195     -0.1939
     63  CA        14.9290    1.7060   25.3140 C.3   195  GLY195      0.2014
     64  C         15.7970    0.4840   25.1380 C.2   195  GLY195      0.2638
     65  O         15.4440   -0.4570   24.4310 O.2   195  GLY195     -0.2714
     66  N         16.9540    0.5170   25.7810 N.am  196  ASN196     -0.1972
     67  CA        17.8540   -0.6260   25.8150 C.3   196  ASN196      0.1688
     68  C         18.2390   -0.7600   27.2780 C.2   196  ASN196      0.2292
     69  O         18.7680    0.1940   27.8520 O.2   196  ASN196     -0.2864
     70  CB        19.0810   -0.3710   24.9290 C.3   196  ASN196      0.1181
     71  CG        19.7510   -1.6610   24.4420 C.2   196  ASN196      0.2629
     72  OD1       19.5170   -2.7470   24.9680 O.2   196  ASN196     -0.2716
     73  ND2       20.5990   -1.5320   23.4230 N.am  196  ASN196     -0.0877
     74  N         15.6340   -3.7700   25.7360 N.3   198  CYS198     -0.1235
     75  CA        14.3720   -3.6770   25.0210 C.3   198  CYS198      0.1677
     76  C         13.2730   -4.3770   25.7860 C.2   198  CYS198      0.2270
     77  O         13.5410   -5.1610   26.7010 O.2   198  CYS198     -0.2867
     78  CB        14.5280   -4.3050   23.6350 C.3   198  CYS198      0.0956
     79  SG        15.8940   -3.5570   22.7210 S.3   198  CYS198     -0.0801
     80  N          8.6460    1.3900   28.2310 N.3   203  LYS203     -0.1245
     81  CA         9.7710    1.8510   27.4340 C.3   203  LYS203      0.1561
     82  C          9.5910    1.3050   26.0270 C.2   203  LYS203      0.2260
     83  O         10.2880    0.3760   25.6100 O.2   203  LYS203     -0.2867
     84  CB        11.0980    1.4250   28.0540 C.3   203  LYS203      0.0271
     85  CG        11.2960    2.0400   29.4360 C.3   203  LYS203      0.0035
     86  CD        12.7310    1.9790   29.8710 C.3   203  LYS203      0.0206
     87  CE        12.9540    2.8870   31.0760 C.3   203  LYS203      0.1093
     88  NZ        14.2740    2.6320   31.7260 N.3   203  LYS203     -0.1314
     89  N          8.8390    1.3210   21.6670 N.3   205  GLY205     -0.1225
     90  CA         9.6070    1.6910   20.4930 C.3   205  GLY205      0.1811
     91  C          9.1140    3.0030   19.9320 C.2   205  GLY205      0.2280
     92  O          7.9360    3.3460   20.0570 O.2   205  GLY205     -0.2866
@<TRIPOS>BOND
     1    34    33    2
     2    33    32    1
     3    37    38    1
     4    40    39    2
     5    32    35    1
     6    32    31    1
     7    35    36    1
     8    38    39    1
     9    38    41    1
    10    39    45   am
    11    41    42    1
    12    45    46    1
    13    46    49    1
    14    46    47    1
    15    49    50    1
    16    42    44    1
    17    42    43    1
    18    48    47    2
    19    47    51   am
    20    15    13    1
    21    24    25    2
    22    24    23    1
    23    19    18    2
    24    51    52    1
    25    13    14    1
    26    13    10    1
    27    23    26    1
    28    23    22    1
    29    56    55    1
    30    18    22   am
    31    18    17    1
    32    52    55    1
    33    52    53    1
    34    10    11    1
    35    10     9    1
    36    16    11   am
    37    16    17    1
    38    26    27    1
    39    30    29    1
    40    55    57    1
    41    28    29    1
    42    28    27    1
    43    11    12    2
    44    54    53    2
    45    17    20    1
    46     9     3   am
    47    53    58   am
    48    91    92    2
    49    91    90    1
    50     4     3    2
    51    20    21    1
    52     3     2    1
    53    90    89    1
    54    58    59    1
    55     2     1    1
    56     2     5    1
    57     7     6   ar
    58    21    79    1
    59    59    60    1
    60     6     5    1
    61     6     8   ar
    62    79    78    1
    63    61    60    2
    64    60    62   am
    65    73    71   am
    66    78    75    1
    67    62    63    1
    68    65    64    2
    69    71    70    1
    70    71    72    2
    71    70    67    1
    72    75    74    1
    73    75    76    1
    74    64    63    1
    75    64    66   am
    76    83    82    2
    77    66    67    1
    78    76    77    2
    79    67    68    1
    80    82    81    1
    81    68    69    2
    82    81    84    1
    83    81    80    1
    84    84    85    1
    85    85    86    1
    86    86    87    1
    87    87    88    1
