@<TRIPOS>MOLECULE
tmp/2airC01.pdb
 84 81 0 0 0
SMALL
GASTEIGER

@<TRIPOS>ATOM
      1  N         64.3760   49.2390  -32.8920 N.3    50  GLU50      -0.1231
      2  CA        63.2250   49.1180  -32.0060 C.3    50  GLU50       0.1699
      3  C         62.2260   48.2920  -32.8110 C.2    50  GLU50       0.2592
      4  O         61.9050   48.6380  -33.9480 O.2    50  GLU50      -0.2718
      5  CB        62.6330   50.4990  -31.7130 C.3    50  GLU50       0.0402
      6  CG        61.2470   50.4550  -31.1070 C.3    50  GLU50       0.1161
      7  CD        60.6700   51.8350  -30.9110 C.2    50  GLU50       0.3649
      8  OE1       61.3350   52.6550  -30.2510 O.co2  50  GLU50      -0.2457
      9  OE2       59.5590   52.1030  -31.4190 O.co2  50  GLU50      -0.2457
     10  N         61.7420   47.2050  -32.2340 N.am   51  ALA51      -0.1966
     11  CA        60.7900   46.3490  -32.9340 C.3    51  ALA51       0.1728
     12  C         59.4460   47.0260  -33.2370 C.2    51  ALA51       0.2617
     13  O         58.9820   47.8860  -32.4910 O.2    51  ALA51      -0.2715
     14  CB        60.5580   45.0920  -32.1310 C.3    51  ALA51       0.0334
     15  N         58.8400   46.6250  -34.3500 N.am   52  SER52      -0.1936
     16  CA        57.5380   47.1280  -34.7780 C.3    52  SER52       0.2055
     17  C         57.1350   46.3170  -35.9990 C.2    52  SER52       0.2644
     18  O         57.2370   46.7630  -37.1430 O.2    52  SER52      -0.2714
     19  CB        57.6020   48.6170  -35.1030 C.3    52  SER52       0.2130
     20  OG        58.6430   48.8750  -36.0120 O.3    52  SER52      -0.2179
     21  N         56.6680   45.1100  -35.7120 N.am   53  THR53      -0.1936
     22  CA        56.2560   44.1320  -36.6960 C.3    53  THR53       0.2028
     23  C         55.4500   44.6220  -37.8820 C.2    53  THR53       0.2642
     24  O         55.8960   44.4690  -39.0140 O.2    53  THR53      -0.2714
     25  CB        55.4990   43.0070  -36.0060 C.3    53  THR53       0.1808
     26  OG1       56.3230   42.4860  -34.9630 O.3    53  THR53      -0.2208
     27  CG2       55.1940   41.8800  -36.9690 C.3    53  THR53       0.0379
     28  N         54.2790   45.2080  -37.6330 N.am   54  ARG54      -0.1963
     29  CA        53.4260   45.6720  -38.7280 C.3    54  ARG54       0.1729
     30  C         54.1230   46.6590  -39.6380 C.2    54  ARG54       0.2616
     31  O         54.0790   46.5200  -40.8550 O.2    54  ARG54      -0.2715
     32  CB        52.1410   46.3230  -38.2120 C.3    54  ARG54       0.0348
     33  CG        51.1530   46.6830  -39.3230 C.3    54  ARG54       0.0492
     34  CD        50.1420   47.7340  -38.8590 C.3    54  ARG54       0.2205
     35  NE        50.7110   49.0840  -38.8180 N.pl3  54  ARG54      -0.0865
     36  CZ        50.5490   49.9380  -37.8100 C.cat  54  ARG54       0.5346
     37  NH1       49.8400   49.5890  -36.7450 N.pl3  54  ARG54       0.1354
     38  NH2       51.0850   51.1510  -37.8660 N.pl3  54  ARG54       0.1354
     39  N         54.7470   47.6690  -39.0440 N.am   55  THR55      -0.1951
     40  CA        55.4430   48.6690  -39.8260 C.3    55  THR55       0.1897
     41  C         56.5970   47.9990  -40.5580 C.2    55  THR55       0.2313
     42  O         56.8750   48.3160  -41.7130 O.2    55  THR55      -0.2863
     43  CB        55.9590   49.8240  -38.9270 C.3    55  THR55       0.1794
     44  OG1       54.8420   50.5940  -38.4550 O.3    55  THR55      -0.2208
     45  CG2       56.8880   50.7350  -39.6990 C.3    55  THR55       0.0378
     46  N         64.3120   52.1610  -37.8670 N.3   105  ARG105     -0.1245
     47  CA        63.3440   52.4470  -36.8240 C.3   105  ARG105      0.1563
     48  C         64.1840   52.4320  -35.5470 C.2   105  ARG105      0.2260
     49  O         64.8380   51.4470  -35.2620 O.2   105  ARG105     -0.2867
     50  CB        62.2980   51.3370  -36.8090 C.3   105  ARG105      0.0307
     51  CG        61.3610   51.3440  -35.6140 C.3   105  ARG105      0.0489
     52  CD        60.2730   52.3700  -35.7310 C.3   105  ARG105      0.2205
     53  NE        59.2700   52.1910  -34.6790 N.pl3 105  ARG105     -0.0865
     54  CZ        57.9940   52.5270  -34.8270 C.cat 105  ARG105      0.5346
     55  NH1       57.5920   53.0460  -35.9860 N.pl3 105  ARG105      0.1354
     56  NH2       57.1280   52.3610  -33.8260 N.pl3 105  ARG105      0.1354
     57  N         57.6710   60.2330  -38.2110 N.3   134  HIS134     -0.1241
     58  CA        57.2820   58.9750  -38.8350 C.3   134  HIS134      0.1621
     59  C         56.6790   59.2810  -40.2270 C.2   134  HIS134      0.2264
     60  O         55.4960   59.0230  -40.4910 O.2   134  HIS134     -0.2867
     61  CB        56.2850   58.2190  -37.9610 C.3   134  HIS134      0.0745
     62  CG        56.2200   56.7610  -38.2800 C.ar  134  HIS134      0.0817
     63  ND1       55.5240   55.8570  -37.5040 N.ar  134  HIS134     -0.2268
     64  CD2       56.7700   56.0410  -39.2850 C.ar  134  HIS134      0.1154
     65  CE1       55.6500   54.6500  -38.0170 C.ar  134  HIS134      0.1986
     66  NE2       56.4030   54.7320  -39.1020 N.ar  134  HIS134     -0.2212
     67  N         45.0850   55.9770  -30.7550 N.3   229  ARG229     -0.1245
     68  CA        45.2700   55.0170  -29.6730 C.3   229  ARG229      0.1563
     69  C         45.4430   55.7440  -28.3460 C.2   229  ARG229      0.2260
     70  O         46.1570   56.7460  -28.2720 O.2   229  ARG229     -0.2867
     71  CB        46.5260   54.1830  -29.9170 C.3   229  ARG229      0.0307
     72  CG        46.6410   53.5830  -31.3070 C.3   229  ARG229      0.0489
     73  CD        48.0350   52.9950  -31.5470 C.3   229  ARG229      0.2205
     74  NE        48.8390   53.8190  -32.4500 N.pl3 229  ARG229     -0.0865
     75  CZ        50.1280   53.6120  -32.7090 C.cat 229  ARG229      0.5346
     76  NH1       50.7710   52.6040  -32.1300 N.pl3 229  ARG229      0.1354
     77  NH2       50.7740   54.4120  -33.5510 N.pl3 229  ARG229      0.1354
     78  N         46.7200   49.8380  -33.9380 N.3   268  PRO268     -0.2116
     79  CA        46.4010   49.0670  -32.7300 C.3   268  PRO268      0.1372
     80  C         45.1480   49.7010  -32.1460 C.2   268  PRO268      0.2244
     81  O         45.2630   50.6580  -31.4040 O.2   268  PRO268     -0.2868
     82  CB        47.6190   49.3000  -31.8500 C.3   268  PRO268      0.0268
     83  CG        48.7210   49.5730  -32.8370 C.3   268  PRO268      0.0207
     84  CD        48.0340   50.4840  -33.8280 C.3   268  PRO268      0.0892
@<TRIPOS>BOND
     1    42    41    2
     2    31    30    2
     3    41    40    1
     4    60    59    2
     5    59    58    1
     6    40    39    1
     7    40    43    1
     8    45    43    1
     9    30    39   am
    10    30    29    1
    11    33    34    1
    12    33    32    1
    13    64    66   ar
    14    64    62   ar
    15    66    65   ar
    16    24    23    2
    17    43    44    1
    18    34    35    1
    19    58    57    1
    20    58    61    1
    21    35    36    2
    22    29    32    1
    23    29    28    1
    24    62    61    1
    25    62    63   ar
    26    65    63   ar
    27    23    28   am
    28    23    22    1
    29    46    47    1
    30    38    36    1
    31    36    37    1
    32    18    17    2
    33    27    25    1
    34    47    50    1
    35    47    48    1
    36    50    51    1
    37    22    25    1
    38    22    21    1
    39    20    19    1
    40    25    26    1
    41    17    21   am
    42    17    16    1
    43    55    54    1
    44    52    51    1
    45    52    53    1
    46    48    49    2
    47    19    16    1
    48    54    53    2
    49    54    56    1
    50    16    15    1
    51    15    12   am
    52     4     3    2
    53    78    84    1
    54    78    79    1
    55    84    83    1
    56    77    75    1
    57    12    11    1
    58    12    13    2
    59    11    10    1
    60    11    14    1
    61     1     2    1
    62    83    82    1
    63     3    10   am
    64     3     2    1
    65    79    80    1
    66    79    82    1
    67    75    74    2
    68    75    76    1
    69    74    73    1
    70    80    81    2
    71     2     5    1
    72     5     6    1
    73    73    72    1
    74     9     7   ar
    75    72    71    1
    76     6     7    1
    77     7     8   ar
    78    67    68    1
    79    71    68    1
    80    68    69    1
    81    69    70    2
