@<TRIPOS>MOLECULE
tmp/2airC00.pdb
 83 77 0 0 0
SMALL
GASTEIGER

@<TRIPOS>ATOM
      1  N         58.8400   46.6250  -34.3500 N.3    52  SER52      -0.1217
      2  CA        57.5380   47.1280  -34.7780 C.3    52  SER52       0.1889
      3  C         57.1350   46.3170  -35.9990 C.2    52  SER52       0.2288
      4  O         57.2370   46.7630  -37.1430 O.2    52  SER52      -0.2866
      5  CB        57.6020   48.6170  -35.1030 C.3    52  SER52       0.2089
      6  OG        58.6430   48.8750  -36.0120 O.3    52  SER52      -0.2183
      7  N         54.2790   45.2080  -37.6330 N.3    54  ARG54      -0.1231
      8  CA        53.4260   45.6720  -38.7280 C.3    54  ARG54       0.1694
      9  C         54.1230   46.6590  -39.6380 C.2    54  ARG54       0.2592
     10  O         54.0790   46.5200  -40.8550 O.2    54  ARG54      -0.2718
     11  CB        52.1410   46.3230  -38.2120 C.3    54  ARG54       0.0321
     12  CG        51.1530   46.6830  -39.3230 C.3    54  ARG54       0.0489
     13  CD        50.1420   47.7340  -38.8590 C.3    54  ARG54       0.2205
     14  NE        50.7110   49.0840  -38.8180 N.pl3  54  ARG54      -0.0865
     15  CZ        50.5490   49.9380  -37.8100 C.cat  54  ARG54       0.5346
     16  NH1       49.8400   49.5890  -36.7450 N.pl3  54  ARG54       0.1354
     17  NH2       51.0850   51.1510  -37.8660 N.pl3  54  ARG54       0.1354
     18  N         54.7470   47.6690  -39.0440 N.am   55  THR55      -0.1953
     19  CA        55.4430   48.6690  -39.8260 C.3    55  THR55       0.1897
     20  C         56.5970   47.9990  -40.5580 C.2    55  THR55       0.2313
     21  O         56.8750   48.3160  -41.7130 O.2    55  THR55      -0.2863
     22  CB        55.9590   49.8240  -38.9270 C.3    55  THR55       0.1794
     23  OG1       54.8420   50.5940  -38.4550 O.3    55  THR55      -0.2208
     24  CG2       56.8880   50.7350  -39.6990 C.3    55  THR55       0.0378
     25  N         64.3120   52.1610  -37.8670 N.3   105  ARG105     -0.1245
     26  CA        63.3440   52.4470  -36.8240 C.3   105  ARG105      0.1563
     27  C         64.1840   52.4320  -35.5470 C.2   105  ARG105      0.2260
     28  O         64.8380   51.4470  -35.2620 O.2   105  ARG105     -0.2867
     29  CB        62.2980   51.3370  -36.8090 C.3   105  ARG105      0.0307
     30  CG        61.3610   51.3440  -35.6140 C.3   105  ARG105      0.0489
     31  CD        60.2730   52.3700  -35.7310 C.3   105  ARG105      0.2205
     32  NE        59.2700   52.1910  -34.6790 N.pl3 105  ARG105     -0.0865
     33  CZ        57.9940   52.5270  -34.8270 C.cat 105  ARG105      0.5346
     34  NH1       57.5920   53.0460  -35.9860 N.pl3 105  ARG105      0.1354
     35  NH2       57.1280   52.3610  -33.8260 N.pl3 105  ARG105      0.1354
     36  N         61.7410   57.5050  -32.1510 N.3   130  GLY130     -0.1225
     37  CA        61.1980   57.9460  -30.8820 C.3   130  GLY130      0.1811
     38  C         59.9060   58.7120  -31.0490 C.2   130  GLY130      0.2280
     39  O         59.0650   58.3540  -31.8660 O.2   130  GLY130     -0.2866
     40  N         57.6710   60.2330  -38.2110 N.3   134  HIS134     -0.1241
     41  CA        57.2820   58.9750  -38.8350 C.3   134  HIS134      0.1621
     42  C         56.6790   59.2810  -40.2270 C.2   134  HIS134      0.2264
     43  O         55.4960   59.0230  -40.4910 O.2   134  HIS134     -0.2867
     44  CB        56.2850   58.2190  -37.9610 C.3   134  HIS134      0.0745
     45  CG        56.2200   56.7610  -38.2800 C.ar  134  HIS134      0.0817
     46  ND1       55.5240   55.8570  -37.5040 N.ar  134  HIS134     -0.2268
     47  CD2       56.7700   56.0410  -39.2850 C.ar  134  HIS134      0.1154
     48  CE1       55.6500   54.6500  -38.0170 C.ar  134  HIS134      0.1986
     49  NE2       56.4030   54.7320  -39.1020 N.ar  134  HIS134     -0.2212
     50  N         54.1560   56.9640  -42.3110 N.3   137  GLN137     -0.1245
     51  CA        52.8330   56.7900  -41.6960 C.3   137  GLN137      0.1566
     52  C         51.9390   57.9510  -42.1510 C.2   137  GLN137      0.2260
     53  O         50.7750   57.7590  -42.4880 O.2   137  GLN137     -0.2867
     54  CB        52.9440   56.8140  -40.1700 C.3   137  GLN137      0.0367
     55  CG        52.1820   55.7220  -39.4850 C.3   137  GLN137      0.0905
     56  CD        52.6560   54.3650  -39.9250 C.2   137  GLN137      0.2608
     57  OE1       53.8540   54.1260  -40.0230 O.2   137  GLN137     -0.2717
     58  NE2       51.7190   53.4620  -40.1940 N.am  137  GLN137     -0.0878
     59  N         45.0850   55.9770  -30.7550 N.3   229  ARG229     -0.1245
     60  CA        45.2700   55.0170  -29.6730 C.3   229  ARG229      0.1563
     61  C         45.4430   55.7440  -28.3460 C.2   229  ARG229      0.2260
     62  O         46.1570   56.7460  -28.2720 O.2   229  ARG229     -0.2867
     63  CB        46.5260   54.1830  -29.9170 C.3   229  ARG229      0.0307
     64  CG        46.6410   53.5830  -31.3070 C.3   229  ARG229      0.0489
     65  CD        48.0350   52.9950  -31.5470 C.3   229  ARG229      0.2205
     66  NE        48.8390   53.8190  -32.4500 N.pl3 229  ARG229     -0.0865
     67  CZ        50.1280   53.6120  -32.7090 C.cat 229  ARG229      0.5346
     68  NH1       50.7710   52.6040  -32.1300 N.pl3 229  ARG229      0.1354
     69  NH2       50.7740   54.4120  -33.5510 N.pl3 229  ARG229      0.1354
     70  N         45.5590   54.6820  -36.6700 N.3   266  PRO266     -0.2116
     71  CA        46.9690   54.2850  -36.8270 C.3   266  PRO266      0.1372
     72  C         47.1490   52.7500  -36.7590 C.2   266  PRO266      0.2244
     73  O         48.1600   52.1890  -37.1840 O.2   266  PRO266     -0.2868
     74  CB        47.6680   55.0640  -35.7020 C.3   266  PRO266      0.0268
     75  CG        46.5000   55.5470  -34.7830 C.3   266  PRO266      0.0207
     76  CD        45.4620   55.8610  -35.8020 C.3   266  PRO266      0.0892
     77  N         46.7200   49.8380  -33.9380 N.3   268  PRO268     -0.2116
     78  CA        46.4010   49.0670  -32.7300 C.3   268  PRO268      0.1372
     79  C         45.1480   49.7010  -32.1460 C.2   268  PRO268      0.2244
     80  O         45.2630   50.6580  -31.4040 O.2   268  PRO268     -0.2868
     81  CB        47.6190   49.3000  -31.8500 C.3   268  PRO268      0.0268
     82  CG        48.7210   49.5730  -32.8370 C.3   268  PRO268      0.0207
     83  CD        48.0340   50.4840  -33.8280 C.3   268  PRO268      0.0892
@<TRIPOS>BOND
     1    53    52    2
     2    50    51    1
     3    52    51    1
     4    21    20    2
     5    51    54    1
     6    10     9    2
     7    20    19    1
     8    43    42    2
     9    42    41    1
    10    58    56   am
    11    54    55    1
    12    57    56    2
    13    56    55    1
    14    19    18    1
    15    19    22    1
    16    24    22    1
    17     9    18   am
    18     9     8    1
    19    12    13    1
    20    12    11    1
    21    47    49   ar
    22    47    45   ar
    23    49    48   ar
    24    22    23    1
    25    13    14    1
    26    41    40    1
    27    41    44    1
    28    14    15    2
    29     8    11    1
    30     8     7    1
    31    45    44    1
    32    45    46   ar
    33    48    46   ar
    34    25    26    1
    35    17    15    1
    36    15    16    1
    37    73    72    2
    38     4     3    2
    39    71    72    1
    40    71    70    1
    41    71    74    1
    42    26    29    1
    43    26    27    1
    44    29    30    1
    45    70    76    1
    46     6     5    1
    47     3     2    1
    48    34    33    1
    49    76    75    1
    50    31    30    1
    51    31    32    1
    52    74    75    1
    53    27    28    2
    54     5     2    1
    55    33    32    2
    56    33    35    1
    57     2     1    1
    58    77    83    1
    59    77    78    1
    60    83    82    1
    61    69    67    1
    62    82    81    1
    63    78    79    1
    64    78    81    1
    65    67    66    2
    66    67    68    1
    67    66    65    1
    68    36    37    1
    69    79    80    2
    70    39    38    2
    71    65    64    1
    72    64    63    1
    73    38    37    1
    74    59    60    1
    75    63    60    1
    76    60    61    1
    77    61    62    2
