@<TRIPOS>MOLECULE
tmp/2aixA00.pdb
 158 152 0 0 0
SMALL
GASTEIGER

@<TRIPOS>ATOM
      1  N          8.9570   38.4850   19.9280 N.3    10  GLU10      -0.1245
      2  CA         8.1240   37.3990   19.4430 C.3    10  GLU10       0.1567
      3  C          8.9940   36.5120   18.5630 C.2    10  GLU10       0.2260
      4  O          9.2820   36.8590   17.4180 O.2    10  GLU10      -0.2867
      5  CB         6.9620   37.9600   18.6180 C.3    10  GLU10       0.0388
      6  CG         5.9590   36.9240   18.1410 C.3    10  GLU10       0.1160
      7  CD         5.0290   36.4670   19.2490 C.2    10  GLU10       0.3649
      8  OE1        4.4320   37.3410   19.9160 O.co2  10  GLU10      -0.2457
      9  OE2        4.8890   35.2430   19.4460 O.co2  10  GLU10      -0.2457
     10  N          0.4930   44.3220   20.1400 N.3    58  TYR58      -0.1241
     11  CA         0.5540   44.5870   18.7120 C.3    58  TYR58       0.1605
     12  C         -0.1650   45.8830   18.3870 C.2    58  TYR58       0.2264
     13  O          0.3610   46.7300   17.6700 O.2    58  TYR58      -0.2867
     14  CB        -0.0520   43.4050   17.9470 C.3    58  TYR58       0.0534
     15  CG         0.9080   42.2450   17.8880 C.ar   58  TYR58      -0.0201
     16  CD1        1.8710   42.1780   16.8880 C.ar   58  TYR58      -0.0009
     17  CD2        0.9350   41.2820   18.8970 C.ar   58  TYR58      -0.0009
     18  CE1        2.8450   41.1930   16.8900 C.ar   58  TYR58       0.0417
     19  CE2        1.9110   40.2860   18.9100 C.ar   58  TYR58       0.0417
     20  CZ         2.8630   40.2550   17.9020 C.ar   58  TYR58       0.1957
     21  OH         3.8480   39.3020   17.9070 O.3    58  TYR58      -0.2866
     22  N          5.7910   41.3290   13.1900 N.3    86  PRO86      -0.2102
     23  CA         4.7250   40.5470   12.5590 C.3    86  PRO86       0.1504
     24  C          3.3790   41.2290   12.8390 C.2    86  PRO86       0.2576
     25  O          2.4790   40.6530   13.4670 O.2    86  PRO86      -0.2718
     26  CB         4.8550   39.1810   13.2300 C.3    86  PRO86       0.0282
     27  CG         5.3680   39.5190   14.5920 C.3    86  PRO86       0.0208
     28  CD         6.4140   40.5730   14.2950 C.3    86  PRO86       0.0893
     29  N          3.2720   42.4730   12.3790 N.am   87  LEU87      -0.1966
     30  CA         2.0740   43.2910   12.5480 C.3    87  LEU87       0.1728
     31  C          1.1390   43.0700   11.3620 C.2    87  LEU87       0.2616
     32  O          1.4730   43.3890   10.2200 O.2    87  LEU87      -0.2715
     33  CB         2.4660   44.7670   12.6360 C.3    87  LEU87       0.0311
     34  CG         1.3600   45.7800   12.9380 C.3    87  LEU87       0.0022
     35  CD1        0.7170   45.4590   14.2790 C.3    87  LEU87       0.0001
     36  CD2        1.9550   47.1830   12.9530 C.3    87  LEU87       0.0001
     37  N         -0.0330   42.5250   11.6480 N.am   88  THR88      -0.1951
     38  CA        -1.0130   42.2320   10.6180 C.3    88  THR88       0.1897
     39  C         -1.6880   43.4670   10.0410 C.2    88  THR88       0.2313
     40  O         -2.1260   44.3540   10.7690 O.2    88  THR88      -0.2863
     41  CB        -2.1060   41.2940   11.1630 C.3    88  THR88       0.1794
     42  OG1       -1.5050   40.0660   11.5980 O.3    88  THR88      -0.2208
     43  CG2       -3.1540   41.0060   10.0880 C.3    88  THR88       0.0378
     44  N         -6.6130   49.2070   11.3060 N.3    93  ARG93      -0.1245
     45  CA        -5.3000   49.8100   11.5030 C.3    93  ARG93       0.1563
     46  C         -4.9000   50.6840   10.3210 C.2    93  ARG93       0.2260
     47  O         -4.2840   51.7310   10.5000 O.2    93  ARG93      -0.2867
     48  CB        -4.2430   48.7230   11.7220 C.3    93  ARG93       0.0307
     49  CG        -4.3650   48.0080   13.0650 C.3    93  ARG93       0.0489
     50  CD        -3.5100   46.7480   13.0970 C.3    93  ARG93       0.2205
     51  NE        -3.5420   46.1090   14.4110 N.pl3  93  ARG93      -0.0865
     52  CZ        -3.0070   44.9230   14.6740 C.cat  93  ARG93       0.5346
     53  NH1       -2.3960   44.2400   13.7130 N.pl3  93  ARG93       0.1354
     54  NH2       -3.0810   44.4210   15.8980 N.pl3  93  ARG93       0.1354
     55  N         -4.8820   34.5300   21.0780 N.3   135  LEU135     -0.1245
     56  CA        -4.1290   35.4920   21.8750 C.3   135  LEU135      0.1561
     57  C         -5.2290   36.3940   22.4310 C.2   135  LEU135      0.2260
     58  O         -6.1640   36.7430   21.7110 O.2   135  LEU135     -0.2867
     59  CB        -3.2030   36.3280   20.9860 C.3   135  LEU135      0.0270
     60  CG        -1.6810   36.2490   21.1190 C.3   135  LEU135      0.0019
     61  CD1       -1.0800   37.4240   20.3520 C.3   135  LEU135      0.0001
     62  CD2       -1.2480   36.3010   22.5710 C.3   135  LEU135      0.0001
     63  N         -5.4330   39.3120   22.7430 N.3   137  SER137     -0.1202
     64  CA        -5.4930   40.5960   22.0480 C.3   137  SER137      0.2020
     65  C         -4.7910   40.4160   20.7100 C.2   137  SER137      0.2619
     66  O         -3.8760   39.6080   20.5950 O.2   137  SER137     -0.2717
     67  CB        -4.7870   41.6820   22.8640 C.3   137  SER137      0.2103
     68  OG        -4.7010   42.8940   22.1340 O.3   137  SER137     -0.2182
     69  N         -5.2110   41.1500   19.6940 N.am  138  GLY138     -0.1942
     70  CA        -4.5650   40.9970   18.4060 C.3   138  GLY138      0.2014
     71  C         -5.5570   40.8280   17.2800 C.2   138  GLY138      0.2640
     72  O         -6.7630   40.7650   17.5110 O.2   138  GLY138     -0.2714
     73  N         -5.0450   40.7470   16.0570 N.am  139  SER139     -0.1935
     74  CA        -5.8980   40.6060   14.8890 C.3   139  SER139      0.2055
     75  C         -6.6630   39.2880   14.8350 C.2   139  SER139      0.2644
     76  O         -7.7840   39.2450   14.3350 O.2   139  SER139     -0.2714
     77  CB        -5.0730   40.7880   13.6030 C.3   139  SER139      0.2130
     78  OG        -4.0430   39.8250   13.4940 O.3   139  SER139     -0.2179
     79  N         -6.0760   38.2100   15.3440 N.am  140  THR140     -0.1936
     80  CA        -6.7780   36.9260   15.3040 C.3   140  THR140      0.2028
     81  C         -8.0520   36.9890   16.1340 C.2   140  THR140      0.2642
     82  O         -9.1260   36.6160   15.6680 O.2   140  THR140     -0.2714
     83  CB        -5.9030   35.7670   15.8140 C.3   140  THR140      0.1808
     84  OG1       -4.7790   35.6030   14.9430 O.3   140  THR140     -0.2208
     85  CG2       -6.7030   34.4630   15.8330 C.3   140  THR140      0.0379
     86  N         -7.9350   37.4640   17.3670 N.am  141  LYS141     -0.1977
     87  CA        -9.0990   37.5750   18.2310 C.3   141  LYS141      0.1596
     88  C        -10.1160   38.5210   17.5960 C.2   141  LYS141      0.2287
     89  O        -11.3140   38.2350   17.5700 O.2   141  LYS141     -0.2864
     90  CB        -8.6930   38.1050   19.6110 C.3   141  LYS141      0.0298
     91  CG        -9.8410   38.1420   20.6150 C.3   141  LYS141      0.0038
     92  CD        -9.3810   38.6260   21.9850 C.3   141  LYS141      0.0206
     93  CE       -10.5180   38.5760   23.0030 C.3   141  LYS141      0.1093
     94  NZ       -10.0840   39.0620   24.3420 N.3   141  LYS141     -0.1314
     95  N          2.1110   33.8630   22.7400 N.3   171  THR171     -0.1218
     96  CA         2.1720   32.6980   21.8800 C.3   171  THR171      0.1862
     97  C          2.7390   31.5280   22.6770 C.2   171  THR171      0.2287
     98  O          2.2650   30.4000   22.5590 O.2   171  THR171     -0.2866
     99  CB         3.0850   32.9590   20.6780 C.3   171  THR171      0.1770
    100  OG1        2.5330   34.0190   19.8860 O.3   171  THR171     -0.2211
    101  CG2        3.2320   31.6910   19.8330 C.3   171  THR171      0.0375
    102  N         -5.1390   25.6620   19.5360 N.3   187  TYR187     -0.1227
    103  CA        -4.7890   27.0770   19.4960 C.3   187  TYR187      0.1736
    104  C         -4.9240   27.6970   18.1080 C.2   187  TYR187      0.2595
    105  O         -4.4380   27.1530   17.1110 O.2   187  TYR187     -0.2718
    106  CB        -3.3650   27.2560   20.0260 C.3   187  TYR187      0.0548
    107  CG        -2.9500   28.6910   20.2790 C.ar  187  TYR187     -0.0200
    108  CD1       -3.7680   29.5630   20.9970 C.ar  187  TYR187     -0.0009
    109  CD2       -1.7170   29.1600   19.8400 C.ar  187  TYR187     -0.0009
    110  CE1       -3.3600   30.8700   21.2710 C.ar  187  TYR187      0.0417
    111  CE2       -1.3010   30.4580   20.1080 C.ar  187  TYR187      0.0417
    112  CZ        -2.1240   31.3080   20.8220 C.ar  187  TYR187      0.1957
    113  OH        -1.7040   32.5950   21.0800 O.3   187  TYR187     -0.2866
    114  N         -5.5990   28.8410   18.0600 N.am  188  LEU188     -0.1966
    115  CA        -5.8260   29.5680   16.8170 C.3   188  LEU188      0.1728
    116  C         -4.8340   30.7210   16.7080 C.2   188  LEU188      0.2616
    117  O         -4.8760   31.6670   17.4910 O.2   188  LEU188     -0.2715
    118  CB        -7.2600   30.1010   16.7930 C.3   188  LEU188      0.0311
    119  CG        -8.3210   28.9940   16.7880 C.3   188  LEU188      0.0022
    120  CD1       -9.6670   29.5270   17.2580 C.3   188  LEU188      0.0001
    121  CD2       -8.4140   28.4160   15.3860 C.3   188  LEU188      0.0001
    122  N         -3.9340   30.6250   15.7390 N.am  189  LEU189     -0.1963
    123  CA        -2.9250   31.6480   15.5320 C.3   189  LEU189      0.1728
    124  C         -2.5740   31.7170   14.0560 C.2   189  LEU189      0.2616
    125  O         -3.0340   30.8960   13.2570 O.2   189  LEU189     -0.2715
    126  CB        -1.6670   31.3280   16.3460 C.3   189  LEU189      0.0311
    127  CG        -0.7460   30.2290   15.8050 C.3   189  LEU189      0.0022
    128  CD1        0.4500   30.0870   16.7330 C.3   189  LEU189      0.0001
    129  CD2       -1.4990   28.9120   15.6790 C.3   189  LEU189      0.0001
    130  N         -1.7460   32.6880   13.6930 N.am  190  GLU190     -0.1977
    131  CA        -1.3590   32.8550   12.3020 C.3   190  GLU190      0.1602
    132  C         -0.4460   31.7220   11.8250 C.2   190  GLU190      0.2287
    133  O          0.4330   31.2510   12.5530 O.2   190  GLU190     -0.2864
    134  CB        -0.7460   34.2520   12.1270 C.3   190  GLU190      0.0415
    135  CG        -1.7770   35.3210   12.5170 C.3   190  GLU190      0.1163
    136  CD        -1.2450   36.7410   12.5640 C.2   190  GLU190      0.3649
    137  OE1       -0.0750   36.9430   12.9450 O.co2 190  GLU190     -0.2457
    138  OE2       -2.0220   37.6640   12.2380 O.co2 190  GLU190     -0.2457
    139  N          3.4610   31.3490   12.2180 N.3   193  MET193     -0.1245
    140  CA         3.8930   31.0830   13.5880 C.3   193  MET193      0.1570
    141  C          3.6220   29.6040   13.8840 C.2   193  MET193      0.2261
    142  O          4.4160   28.9320   14.5450 O.2   193  MET193     -0.2867
    143  CB         3.1340   31.9580   14.5870 C.3   193  MET193      0.0387
    144  CG         3.5710   31.7330   16.0360 C.3   193  MET193      0.0595
    145  SD         5.3560   31.9660   16.2720 S.3   193  MET193     -0.1393
    146  CE         5.4620   33.7290   16.1600 C.3   193  MET193      0.0692
    147  N          1.6850   40.6190    6.7930 N.3   217  TYR217     -0.1241
    148  CA         2.3180   41.5270    7.7290 C.3   217  TYR217      0.1605
    149  C          2.8960   42.6460    6.8890 C.2   217  TYR217      0.2264
    150  O          3.3630   42.4170    5.7740 O.2   217  TYR217     -0.2867
    151  CB         3.4670   40.8590    8.4820 C.3   217  TYR217      0.0534
    152  CG         3.0830   39.6690    9.3200 C.ar  217  TYR217     -0.0201
    153  CD1        1.9080   39.6720   10.0750 C.ar  217  TYR217     -0.0009
    154  CD2        3.9280   38.5610    9.4120 C.ar  217  TYR217     -0.0009
    155  CE1        1.5850   38.6040   10.9020 C.ar  217  TYR217      0.0417
    156  CE2        3.6160   37.4850   10.2400 C.ar  217  TYR217      0.0417
    157  CZ         2.4450   37.5150   10.9820 C.ar  217  TYR217      0.1957
    158  OH         2.1320   36.4630   11.8090 O.3   217  TYR217     -0.2866
@<TRIPOS>BOND
     1   150   149    2
     2   147   148    1
     3   149   148    1
     4   148   151    1
     5   151   152    1
     6   152   154   ar
     7   152   153   ar
     8   154   156   ar
     9    39    38    1
    10    39    40    2
    11   153   155   ar
    12    43    41    1
    13    32    31    2
    14   156   157   ar
    15    46    47    2
    16    46    45    1
    17    38    41    1
    18    38    37    1
    19   155   157   ar
    20   157   158    1
    21    41    42    1
    22    44    45    1
    23    31    37   am
    24    31    30    1
    25    45    48    1
    26    48    49    1
    27   132   131    1
    28   132   133    2
    29   134   131    1
    30   134   135    1
    31   139   140    1
    32   138   136   ar
    33   131   130    1
    34    29    30    1
    35    29    24   am
    36   135   136    1
    37    30    33    1
    38    23    24    1
    39    23    22    1
    40    23    26    1
    41   136   137   ar
    42    33    34    1
    43    24    25    2
    44    34    36    1
    45    34    35    1
    46    49    50    1
    47    50    51    1
    48    22    28    1
    49    26    27    1
    50   125   124    2
    51    78    77    1
    52   140   141    1
    53   140   143    1
    54    77    74    1
    55   130   124   am
    56    53    52    1
    57   141   142    2
    58   124   123    1
    59    28    27    1
    60    76    75    2
    61    51    52    2
    62   143   144    1
    63    52    54    1
    64    75    74    1
    65    75    79   am
    66    74    73    1
    67    84    83    1
    68    80    79    1
    69    80    83    1
    70    80    81    1
    71   121   119    1
    72   123   122    1
    73   123   126    1
    74    82    81    2
    75   129   127    1
    76   122   116   am
    77   127   126    1
    78   127   128    1
    79    83    85    1
    80   144   145    1
    81    73    71   am
    82    81    86   am
    83   146   145    1
    84   116   115    1
    85   116   117    2
    86   119   118    1
    87   119   120    1
    88   118   115    1
    89   115   114    1
    90    16    18   ar
    91    16    15   ar
    92    18    20   ar
    93   105   104    2
    94    71    72    2
    95    71    70    1
    96    86    87    1
    97     4     3    2
    98    89    88    2
    99    88    87    1
   100    13    12    2
   101    15    14    1
   102    15    17   ar
   103    20    21    1
   104    20    19   ar
   105    14    11    1
   106   114   104   am
   107   104   103    1
   108     6     5    1
   109     6     7    1
   110    87    90    1
   111    12    11    1
   112    70    69    1
   113     3     2    1
   114     5     2    1
   115    11    10    1
   116    17    19   ar
   117     7     9   ar
   118     7     8   ar
   119     2     1    1
   120   103   102    1
   121   103   106    1
   122    90    91    1
   123    69    65   am
   124   101    99    1
   125   109   111   ar
   126   109   107   ar
   127   100    99    1
   128   106   107    1
   129   111   112   ar
   130   107   108   ar
   131    61    60    1
   132    66    65    2
   133    91    92    1
   134    99    96    1
   135    65    64    1
   136   112   113    1
   137   112   110   ar
   138    59    60    1
   139    59    56    1
   140   108   110   ar
   141    55    56    1
   142    60    62    1
   143    58    57    2
   144    56    57    1
   145    96    97    1
   146    96    95    1
   147    92    93    1
   148    64    63    1
   149    64    67    1
   150    68    67    1
   151    98    97    2
   152    93    94    1
