@<TRIPOS>MOLECULE
tmp/2aizA00.pdb
 136 131 0 0 0
SMALL
GASTEIGER

@<TRIPOS>ATOM
      1  N        161.9900    0.9610   -7.3610 N.3    35  GLY35      -0.1210
      2  CA       161.3440    0.2360   -8.4430 C.3    35  GLY35       0.1956
      3  C        160.1580    0.9820   -9.0280 C.2    35  GLY35       0.2612
      4  O        159.9410    2.1550   -8.7230 O.2    35  GLY35      -0.2717
      5  N        159.3860    0.2970   -9.8700 N.am   36  PHE36      -0.1962
      6  CA       158.2120    0.8960  -10.5030 C.3    36  PHE36       0.1771
      7  C        157.2400    1.4250   -9.4520 C.2    36  PHE36       0.2619
      8  O        156.6390    0.6550   -8.7040 O.2    36  PHE36      -0.2715
      9  CB       157.5120   -0.1300  -11.4080 C.3    36  PHE36       0.0574
     10  CG       156.1710    0.3170  -11.9400 C.ar   36  PHE36      -0.0200
     11  CD1      155.8420    1.6630  -12.0120 C.ar   36  PHE36      -0.0042
     12  CD2      155.2380   -0.6160  -12.3700 C.ar   36  PHE36      -0.0042
     13  CE1      154.6140    2.0690  -12.5000 C.ar   36  PHE36      -0.0003
     14  CE2      154.0090   -0.2160  -12.8600 C.ar   36  PHE36      -0.0003
     15  CZ       153.6970    1.1290  -12.9260 C.ar   36  PHE36      -0.0000
     16  N        157.0910    2.7480   -9.4070 N.am   37  ASP37      -0.1971
     17  CA       156.1910    3.3920   -8.4540 C.3    37  ASP37       0.1709
     18  C        156.3620    2.8090   -7.0530 C.2    37  ASP37       0.2293
     19  O        155.3890    2.6240   -6.3230 O.2    37  ASP37      -0.2864
     20  CB       154.7380    3.2370   -8.9080 C.3    37  ASP37       0.1436
     21  CG       153.9090    4.4740   -8.6240 C.2    37  ASP37       0.3671
     22  OD1      154.0470    5.4660   -9.3700 O.co2  37  ASP37      -0.2456
     23  OD2      153.1210    4.4500   -7.6540 O.co2  37  ASP37      -0.2456
     24  N        162.8840    9.5500  -10.7110 N.3    70  THR70      -0.1203
     25  CA       162.2990    8.3010  -11.1880 C.3    70  THR70       0.1994
     26  C        162.1450    8.3330  -12.7040 C.2    70  THR70       0.2617
     27  O        162.6180    9.2590  -13.3620 O.2    70  THR70      -0.2717
     28  CB       160.9390    8.0620  -10.5320 C.3    70  THR70       0.1784
     29  OG1      160.0210    9.0760  -10.8990 O.3    70  THR70      -0.2211
     30  CG2      161.0040    8.0240   -9.0240 C.3    70  THR70       0.0376
     31  N        161.4750    7.3260  -13.2570 N.am   71  ASP71      -0.1973
     32  CA       161.2640    7.2660  -14.6960 C.3    71  ASP71       0.1709
     33  C        160.4330    8.4580  -15.1560 C.2    71  ASP71       0.2293
     34  O        159.5360    8.9140  -14.4460 O.2    71  ASP71      -0.2864
     35  CB       160.5860    5.9510  -15.0920 C.3    71  ASP71       0.1436
     36  CG       159.1710    5.8410  -14.5630 C.2    71  ASP71       0.3671
     37  OD1      158.8870    6.4230  -13.4960 O.co2  71  ASP71      -0.2456
     38  OD2      158.3470    5.1700  -15.2200 O.co2  71  ASP71      -0.2456
     39  N        158.2480    8.5560  -17.4240 N.3    73  ARG73      -0.1231
     40  CA       156.8670    8.1590  -17.7080 C.3    73  ARG73       0.1694
     41  C        155.8540    8.8210  -16.7670 C.2    73  ARG73       0.2593
     42  O        155.9040    8.6520  -15.5460 O.2    73  ARG73      -0.2718
     43  CB       156.7240    6.6380  -17.6480 C.3    73  ARG73       0.0321
     44  CG       156.1510    6.0400  -18.9230 C.3    73  ARG73       0.0489
     45  CD       154.7340    6.5290  -19.1780 C.3    73  ARG73       0.2205
     46  NE       154.2610    6.1670  -20.5130 N.pl3  73  ARG73      -0.0865
     47  CZ       152.9850    6.2180  -20.8880 C.cat  73  ARG73       0.5346
     48  NH1      152.0510    6.6170  -20.0340 N.pl3  73  ARG73       0.1354
     49  NH2      152.6440    5.8720  -22.1210 N.pl3  73  ARG73       0.1354
     50  N        154.9430    9.5860  -17.3660 N.am   74  GLY74      -0.1942
     51  CA       153.9120   10.2870  -16.6150 C.3    74  GLY74       0.2014
     52  C        154.0420   11.8000  -16.6990 C.2    74  GLY74       0.2639
     53  O        153.8480   12.3810  -17.7670 O.2    74  GLY74      -0.2714
     54  N        154.3510   12.4460  -15.5780 N.am   75  THR75      -0.1950
     55  CA       154.4830   13.9030  -15.5500 C.3    75  THR75       0.1897
     56  C        155.1410   14.3690  -14.2530 C.2    75  THR75       0.2313
     57  O        154.9580   13.7490  -13.2070 O.2    75  THR75      -0.2863
     58  CB       153.1000   14.5460  -15.6950 C.3    75  THR75       0.1794
     59  OG1      152.0880   13.6630  -15.2450 O.3    75  THR75      -0.2208
     60  CG2      152.7650   14.9380  -17.1180 C.3    75  THR75       0.0378
     61  N        154.4750   16.4250  -12.0060 N.3    77  GLU77      -0.1231
     62  CA       153.5530   16.4430  -10.8790 C.3    77  GLU77       0.1699
     63  C        153.3440   15.0360  -10.3290 C.2    77  GLU77       0.2592
     64  O        153.3570   14.8250   -9.1120 O.2    77  GLU77      -0.2718
     65  CB       152.2110   17.0500  -11.2950 C.3    77  GLU77       0.0402
     66  CG       152.1390   18.5560  -11.0970 C.3    77  GLU77       0.1161
     67  CD       151.6510   18.9390   -9.7140 C.2    77  GLU77       0.3649
     68  OE1      150.6380   18.3640   -9.2620 O.co2  77  GLU77      -0.2457
     69  OE2      152.2820   19.8130   -9.0820 O.co2  77  GLU77      -0.2457
     70  N        153.1950   14.0690  -11.2300 N.am   78  TYR78      -0.1962
     71  CA       153.0160   12.6840  -10.8240 C.3    78  TYR78       0.1771
     72  C        154.3170   12.1360  -10.2670 C.2    78  TYR78       0.2619
     73  O        154.3350   11.5150   -9.2040 O.2    78  TYR78      -0.2715
     74  CB       152.5380   11.8160  -11.9900 C.3    78  TYR78       0.0574
     75  CG       151.9470   10.4980  -11.5410 C.ar   78  TYR78      -0.0198
     76  CD1      152.6910    9.6080  -10.7740 C.ar   78  TYR78      -0.0009
     77  CD2      150.6450   10.1450  -11.8710 C.ar   78  TYR78      -0.0009
     78  CE1      152.1560    8.4090  -10.3530 C.ar   78  TYR78       0.0417
     79  CE2      150.1030    8.9440  -11.4520 C.ar   78  TYR78       0.0417
     80  CZ       150.8640    8.0800  -10.6920 C.ar   78  TYR78       0.1957
     81  OH       150.3330    6.8830  -10.2710 O.3    78  TYR78      -0.2866
     82  N        155.4150   12.3860  -10.9740 N.am   79  ASN79      -0.1972
     83  CA       156.7110   11.9250  -10.5160 C.3    79  ASN79       0.1688
     84  C        157.0840   12.6870   -9.2520 C.2    79  ASN79       0.2292
     85  O        157.0120   12.1340   -8.1550 O.2    79  ASN79      -0.2864
     86  CB       157.7710   12.1160  -11.6070 C.3    79  ASN79       0.1181
     87  CG       157.2830   11.6650  -12.9740 C.2    79  ASN79       0.2629
     88  OD1      157.1000   12.4800  -13.8780 O.2    79  ASN79      -0.2716
     89  ND2      157.0710   10.3620  -13.1310 N.am   79  ASN79      -0.0877
     90  N        155.8180   14.1550   -7.1300 N.3    81  ALA81      -0.1231
     91  CA       155.0310   13.7590   -5.9710 C.3    81  ALA81       0.1694
     92  C        155.4910   12.3980   -5.4540 C.2    81  ALA81       0.2591
     93  O        155.9430   12.2680   -4.3180 O.2    81  ALA81      -0.2718
     94  CB       153.5510   13.7240   -6.3210 C.3    81  ALA81       0.0304
     95  N        155.3970   11.3960   -6.3200 N.am   82  LEU82      -0.1980
     96  CA       155.8350   10.0540   -5.9560 C.3    82  LEU82       0.1596
     97  C        157.2450   10.0830   -5.3510 C.2    82  LEU82       0.2287
     98  O        157.5090    9.4400   -4.3320 O.2    82  LEU82      -0.2864
     99  CB       155.8130    9.1450   -7.1870 C.3    82  LEU82       0.0297
    100  CG       154.8810    7.9410   -7.0920 C.3    82  LEU82       0.0022
    101  CD1      155.4540    6.8940   -6.1460 C.3    82  LEU82       0.0001
    102  CD2      153.4920    8.3700   -6.6420 C.3    82  LEU82       0.0001
    103  N        158.9170    9.5830   -1.4420 N.3    86  ARG86      -0.1245
    104  CA       159.9870    8.6260   -1.1520 C.3    86  ARG86       0.1563
    105  C        161.1190    9.3630   -0.4450 C.2    86  ARG86       0.2260
    106  O        161.7160    8.8650    0.5170 O.2    86  ARG86      -0.2867
    107  CB       160.5090    7.9800   -2.4400 C.3    86  ARG86       0.0307
    108  CG       159.4210    7.3710   -3.3120 C.3    86  ARG86       0.0489
    109  CD       159.7390    7.5340   -4.7910 C.3    86  ARG86       0.2205
    110  NE       159.6430    6.2720   -5.5190 N.pl3  86  ARG86      -0.0865
    111  CZ       160.5430    5.8470   -6.4060 C.cat  86  ARG86       0.5346
    112  NH1      161.6250    6.5690   -6.6700 N.pl3  86  ARG86       0.1354
    113  NH2      160.3600    4.6930   -7.0310 N.pl3  86  ARG86       0.1354
    114  N        164.9240    2.2490  -17.4790 N.3   124  TYR124     -0.1241
    115  CA       163.9670    2.6390  -16.4530 C.3   124  TYR124      0.1605
    116  C        164.4970    2.3240  -15.0570 C.2   124  TYR124      0.2264
    117  O        164.4050    3.1560  -14.1540 O.2   124  TYR124     -0.2867
    118  CB       162.6280    1.9280  -16.6810 C.3   124  TYR124      0.0534
    119  CG       161.5750    2.7740  -17.3780 C.ar  124  TYR124     -0.0201
    120  CD1      161.9110    3.9560  -18.0360 C.ar  124  TYR124     -0.0009
    121  CD2      160.2410    2.3860  -17.3750 C.ar  124  TYR124     -0.0009
    122  CE1      160.9470    4.7200  -18.6660 C.ar  124  TYR124      0.0417
    123  CE2      159.2730    3.1450  -18.0050 C.ar  124  TYR124      0.0417
    124  CZ       159.6320    4.3110  -18.6480 C.ar  124  TYR124      0.1957
    125  OH       158.6700    5.0700  -19.2760 O.3   124  TYR124     -0.2866
    126  N        165.2180    4.8860  -11.8310 N.3   128  ARG128     -0.1245
    127  CA       164.5820    4.8230  -10.5150 C.3   128  ARG128      0.1563
    128  C        165.6230    4.8820   -9.3980 C.2   128  ARG128      0.2260
    129  O        166.0500    3.8520   -8.8750 O.2   128  ARG128     -0.2867
    130  CB       163.7390    3.5540  -10.3800 C.3   128  ARG128      0.0307
    131  CG       162.3980    3.6290  -11.0980 C.3   128  ARG128      0.0489
    132  CD       162.1730    2.4390  -12.0240 C.3   128  ARG128      0.2205
    133  NE       162.6390    1.1790  -11.4420 N.pl3 128  ARG128     -0.0865
    134  CZ       162.5830    0.0060  -12.0730 C.cat 128  ARG128      0.5346
    135  NH1      162.0820   -0.0760  -13.3000 N.pl3 128  ARG128      0.1354
    136  NH2      163.0300   -1.0900  -11.4750 N.pl3 128  ARG128      0.1354
@<TRIPOS>BOND
     1    49    47    1
     2    47    46    2
     3    47    48    1
     4    46    45    1
     5   125   124    1
     6    45    44    1
     7    44    43    1
     8   122   124   ar
     9   122   120   ar
    10   124   123   ar
    11   120   119   ar
    12   123   121   ar
    13    53    52    2
    14    40    43    1
    15    40    39    1
    16    40    41    1
    17   114   115    1
    18   119   121   ar
    19   119   118    1
    20    50    41   am
    21    50    51    1
    22    60    58    1
    23    41    42    2
    24    52    51    1
    25    52    54   am
    26   118   115    1
    27   115   116    1
    28    58    55    1
    29    58    59    1
    30    54    55    1
    31    55    56    1
    32    38    36   ar
    33    33    32    1
    34    33    34    2
    35    35    32    1
    36    35    36    1
    37   116   117    2
    38    32    31    1
    39    36    37   ar
    40    56    57    2
    41    88    87    2
    42    27    26    2
    43   135   134    1
    44    31    26   am
    45    89    87   am
    46    87    86    1
    47    15    14   ar
    48    15    13   ar
    49    14    12   ar
    50    26    25    1
    51    13    11   ar
    52    12    10   ar
    53   134   136    1
    54   134   133    2
    55   132   133    1
    56   132   131    1
    57    11    10   ar
    58    61    62    1
    59    74    75    1
    60    74    71    1
    61    10     9    1
    62    77    75   ar
    63    77    79   ar
    64   126   127    1
    65    86    83    1
    66    75    76   ar
    67    79    80   ar
    68     9     6    1
    69    65    66    1
    70    65    62    1
    71    70    71    1
    72    70    63   am
    73    25    24    1
    74    25    28    1
    75   131   130    1
    76    66    67    1
    77    82    83    1
    78    82    72   am
    79    29    28    1
    80    62    63    1
    81    71    72    1
    82    76    78   ar
    83    80    78   ar
    84    80    81    1
    85    28    30    1
    86    83    84    1
    87   127   130    1
    88   127   128    1
    89     6     5    1
    90     6     7    1
    91    63    64    2
    92    72    73    2
    93     5     3   am
    94    67    68   ar
    95    67    69   ar
    96     7    16   am
    97     7     8    2
    98    16    17    1
    99   128   129    2
   100    22    21   ar
   101    84    85    2
   102     3     4    2
   103     3     2    1
   104    20    21    1
   105    20    17    1
   106    21    23   ar
   107    17    18    1
   108     2     1    1
   109    99   100    1
   110    99    96    1
   111    90    91    1
   112   100   102    1
   113   100   101    1
   114    18    19    2
   115   113   111    1
   116   112   111    1
   117   111   110    2
   118    94    91    1
   119    95    96    1
   120    95    92   am
   121    91    92    1
   122    96    97    1
   123   110   109    1
   124    92    93    2
   125    97    98    2
   126   109   108    1
   127   108   107    1
   128   107   104    1
   129   103   104    1
   130   104   105    1
   131   105   106    2
