@<TRIPOS>MOLECULE
tmp/2aj4A01.pdb
 197 190 0 0 0
SMALL
GASTEIGER

@<TRIPOS>ATOM
      1  N         12.2580   -2.2340   12.0510 N.3    44  ARG44      -0.1245
      2  CA        11.3130   -3.2080   12.5540 C.3    44  ARG44       0.1563
      3  C          9.9750   -2.5920   12.7340 C.2    44  ARG44       0.2260
      4  O          9.8290   -1.3670   12.8610 O.2    44  ARG44      -0.2867
      5  CB        11.7360   -3.8130   13.9100 C.3    44  ARG44       0.0307
      6  CG        11.8610   -2.8060   15.0640 C.3    44  ARG44       0.0489
      7  CD        10.6560   -2.7010   16.0670 C.3    44  ARG44       0.2205
      8  NE         9.9690   -1.3900   15.9050 N.pl3  44  ARG44      -0.0865
      9  CZ         9.9500   -0.3120   16.7080 C.cat  44  ARG44       0.5346
     10  NH1       10.5260   -0.1820   17.9190 N.pl3  44  ARG44       0.1354
     11  NH2        9.3000    0.7210   16.2680 N.pl3  44  ARG44       0.1354
     12  N         20.0310   -0.4990    7.6960 N.3    68  MET68      -0.1245
     13  CA        21.2410    0.2890    7.8400 C.3    68  MET68       0.1570
     14  C         22.4070   -0.5230    7.3270 C.2    68  MET68       0.2261
     15  O         22.5670   -1.6930    7.6800 O.2    68  MET68      -0.2867
     16  CB        21.5090    0.7530    9.2870 C.3    68  MET68       0.0387
     17  CG        22.9370    1.1830    9.5390 C.3    68  MET68       0.0595
     18  SD        23.4270    2.5790    8.5060 S.3    68  MET68      -0.1393
     19  CE        22.4260    3.9040    9.2360 C.3    68  MET68       0.0692
     20  N         28.6620    9.4560    6.1530 N.3    86  ASN86      -0.1240
     21  CA        27.2560    9.1110    5.9800 C.3    86  ASN86       0.1653
     22  C         26.7620    9.4560    4.5960 C.2    86  ASN86       0.2266
     23  O         27.1560   10.4580    4.0590 O.2    86  ASN86      -0.2867
     24  CB        26.3510    9.7710    7.0540 C.3    86  ASN86       0.1155
     25  CG        25.0240    9.0640    7.2790 C.2    86  ASN86       0.2627
     26  OD1       24.0960    9.1170    6.4620 O.2    86  ASN86      -0.2716
     27  ND2       24.9280    8.3770    8.4040 N.am   86  ASN86      -0.0877
     28  N         23.9970   10.5230    3.8960 N.3    88  ASP88      -0.1239
     29  CA        23.1160   11.6630    4.1820 C.3    88  ASP88       0.1674
     30  C         23.8160   12.8990    4.6880 C.2    88  ASP88       0.2266
     31  O         24.3780   12.9180    5.7730 O.2    88  ASP88      -0.2867
     32  CB        22.0660   11.2960    5.2510 C.3    88  ASP88       0.1410
     33  CG        20.7560   12.0200    5.1360 C.2    88  ASP88       0.3668
     34  OD1       19.6910   11.4980    5.4640 O.co2  88  ASP88      -0.2456
     35  OD2       20.8940   13.2420    4.6550 O.co2  88  ASP88      -0.2456
     36  N         23.9500   14.1060    8.0140 N.3    91  PHE91      -0.1241
     37  CA        24.9270   13.5730    8.9360 C.3    91  PHE91       0.1605
     38  C         26.3390   13.8730    8.5140 C.2    91  PHE91       0.2264
     39  O         26.8520   13.3440    7.5350 O.2    91  PHE91      -0.2867
     40  CB        24.6820   12.1010    9.2200 C.3    91  PHE91       0.0534
     41  CG        23.2670   11.9110    9.6470 C.ar   91  PHE91      -0.0203
     42  CD1       22.3430   11.3190    8.7840 C.ar   91  PHE91      -0.0042
     43  CD2       22.8390   12.3480   10.8990 C.ar   91  PHE91      -0.0042
     44  CE1       21.0170   11.1360    9.1790 C.ar   91  PHE91      -0.0003
     45  CE2       21.5170   12.1650   11.3050 C.ar   91  PHE91      -0.0003
     46  CZ        20.6020   11.5580   10.4430 C.ar   91  PHE91      -0.0000
     47  N         23.2500   16.0190   20.9570 N.3   112  SER112     -0.1202
     48  CA        22.4960   15.1410   20.1180 C.3   112  SER112      0.2020
     49  C         23.2920   15.1260   18.8100 C.2   112  SER112      0.2619
     50  O         23.2910   16.0980   18.0200 O.2   112  SER112     -0.2717
     51  CB        21.0420   15.4790   19.9050 C.3   112  SER112      0.2103
     52  OG        20.4780   14.4420   19.1150 O.3   112  SER112     -0.2182
     53  N         24.0520   14.0320   18.6530 N.am  113  ASP113     -0.1959
     54  CA        24.9240   13.8260   17.5140 C.3   113  ASP113      0.1840
     55  C         24.9420   12.3760   17.0940 C.2   113  ASP113      0.2622
     56  O         24.9920   11.4640   17.9130 O.2   113  ASP113     -0.2715
     57  CB        26.3510   14.3240   17.7780 C.3   113  ASP113      0.1450
     58  CG        27.1560   14.2270   16.5260 C.2   113  ASP113      0.3671
     59  OD1       28.0890   13.4490   16.3590 O.co2 113  ASP113     -0.2456
     60  OD2       26.7030   15.0480   15.6200 O.co2 113  ASP113     -0.2456
     61  N         24.9160   12.1550   15.7930 N.am  114  TRP114     -0.1974
     62  CA        24.8600   10.8170   15.2490 C.3   114  TRP114      0.1640
     63  C         26.0010    9.8980   15.6270 C.2   114  TRP114      0.2290
     64  O         25.8350    8.6780   15.6980 O.2   114  TRP114     -0.2864
     65  CB        24.5620   10.8050   13.7440 C.3   114  TRP114      0.0576
     66  CG        25.7510   11.1040   12.8740 C.ar  114  TRP114      0.0006
     67  CD1       26.3440   12.3080   12.6990 C.ar  114  TRP114      0.0946
     68  CD2       26.4370   10.1930   11.9980 C.ar  114  TRP114      0.0152
     69  NE1       27.3650   12.2030   11.8040 N.ar  114  TRP114     -0.2442
     70  CE2       27.4360   10.9290   11.3340 C.ar  114  TRP114      0.0810
     71  CE3       26.2900    8.8420   11.7010 C.ar  114  TRP114      0.0012
     72  CZ2       28.2980   10.3420   10.3970 C.ar  114  TRP114      0.0191
     73  CZ3       27.1350    8.2710   10.7810 C.ar  114  TRP114      0.0001
     74  CH2       28.1250    9.0070   10.1330 C.ar  114  TRP114      0.0015
     75  N         25.4730    7.5870   18.6460 N.3   117  TYR117     -0.1241
     76  CA        24.7800    6.3570   18.3530 C.3   117  TYR117      0.1605
     77  C         25.7760    5.3330   17.8390 C.2   117  TYR117      0.2264
     78  O         25.6670    4.1490   18.1160 O.2   117  TYR117     -0.2867
     79  CB        23.5730    6.6110   17.4080 C.3   117  TYR117      0.0534
     80  CG        22.3010    6.8780   18.1920 C.ar  117  TYR117     -0.0201
     81  CD1       21.4370    5.8340   18.5340 C.ar  117  TYR117     -0.0009
     82  CD2       21.9280    8.1710   18.5650 C.ar  117  TYR117     -0.0009
     83  CE1       20.2370    6.0600   19.2140 C.ar  117  TYR117      0.0417
     84  CE2       20.7320    8.4170   19.2480 C.ar  117  TYR117      0.0417
     85  CZ        19.8910    7.3590   19.5920 C.ar  117  TYR117      0.1957
     86  OH        18.7150    7.6180   20.2740 O.3   117  TYR117     -0.2866
     87  N         21.6520    4.4980    5.4430 N.3   151  GLY151     -0.1225
     88  CA        20.4520    3.8570    5.9700 C.3   151  GLY151      0.1811
     89  C         19.2240    4.2990    5.1780 C.2   151  GLY151      0.2280
     90  O         19.1500    5.4310    4.7080 O.2   151  GLY151     -0.2866
     91  N         16.1460    3.4260    6.5590 N.3   153  VAL153     -0.1245
     92  CA        15.0630    3.4500    7.5030 C.3   153  VAL153      0.1561
     93  C         14.7830    4.9130    7.7930 C.2   153  VAL153      0.2260
     94  O         15.6520    5.6690    8.2520 O.2   153  VAL153     -0.2867
     95  CB        15.3330    2.7500    8.8290 C.3   153  VAL153      0.0252
     96  CG1       14.0490    2.7290    9.6530 C.3   153  VAL153      0.0019
     97  CG2       15.8410    1.3350    8.6230 C.3   153  VAL153      0.0019
     98  N         14.1120    8.0860    9.4920 N.3   155  THR155     -0.1203
     99  CA        14.3810    8.4880   10.8680 C.3   155  THR155      0.1994
    100  C         13.1790    9.1190   11.6090 C.2   155  THR155      0.2618
    101  O         12.3840    9.8370   10.9980 O.2   155  THR155     -0.2717
    102  CB        15.6430    9.3700   10.9820 C.3   155  THR155      0.1784
    103  OG1       15.5540   10.4540   10.0910 O.3   155  THR155     -0.2211
    104  CG2       16.8810    8.5670   10.6370 C.3   155  THR155      0.0376
    105  N         13.0710    8.8450   12.9350 N.am  156  GLY156     -0.1942
    106  CA        12.0320    9.3780   13.7850 C.3   156  GLY156      0.2014
    107  C         10.6740    8.9160   13.3010 C.2   156  GLY156      0.2640
    108  O          9.6620    9.6180   13.4000 O.2   156  GLY156     -0.2714
    109  N         10.7020    7.7170   12.7410 N.am  157  SER157     -0.1935
    110  CA         9.5310    7.1480   12.1540 C.3   157  SER157      0.2055
    111  C          8.9810    6.1460   13.0900 C.2   157  SER157      0.2644
    112  O          7.9070    5.5770   12.8560 O.2   157  SER157     -0.2714
    113  CB         9.9410    6.4290   10.8880 C.3   157  SER157      0.2130
    114  OG        10.9050    5.4700   11.2810 O.3   157  SER157     -0.2179
    115  N          9.7380    5.9100   14.1490 N.am  158  GLY158     -0.1939
    116  CA         9.2540    4.9010   15.0710 C.3   158  GLY158      0.2014
    117  C          9.4870    3.4940   14.4890 C.2   158  GLY158      0.2639
    118  O          8.8870    2.5390   14.9150 O.2   158  GLY158     -0.2714
    119  N         10.3220    3.3550   13.4640 N.am  159  LEU159     -0.1963
    120  CA        10.6140    2.0470   12.8910 C.3   159  LEU159      0.1728
    121  C         11.9960    1.6380   13.3390 C.2   159  LEU159      0.2617
    122  O         12.5860    0.7180   12.8270 O.2   159  LEU159     -0.2715
    123  CB        10.6050    2.0230   11.3610 C.3   159  LEU159      0.0311
    124  CG         9.2500    2.2700   10.7290 C.3   159  LEU159      0.0022
    125  CD1        9.4270    2.1960    9.2200 C.3   159  LEU159      0.0001
    126  CD2        8.2480    1.2070   11.1970 C.3   159  LEU159      0.0001
    127  N         12.5420    2.4050   14.2600 N.am  160  SER160     -0.1936
    128  CA        13.7960    2.1090   14.8270 C.3   160  SER160      0.2055
    129  C         15.0000    2.1190   13.9120 C.2   160  SER160      0.2644
    130  O         15.7640    1.1440   13.8170 O.2   160  SER160     -0.2714
    131  CB        13.6780    0.8240   15.6100 C.3   160  SER160      0.2130
    132  OG        14.9740    0.4890   16.0590 O.3   160  SER160     -0.2179
    133  N         15.2190    3.2610   13.2730 N.am  161  SER161     -0.1935
    134  CA        16.4030    3.4230   12.4670 C.3   161  SER161      0.2055
    135  C         17.5660    3.4070   13.5010 C.2   161  SER161      0.2643
    136  O         18.6990    2.9360   13.2820 O.2   161  SER161     -0.2714
    137  CB        16.2810    4.7200   11.6720 C.3   161  SER161      0.2130
    138  OG        17.5340    5.1520   11.2010 O.3   161  SER161     -0.2179
    139  N         17.2270    3.8620   14.7050 N.am  162  SER162     -0.1949
    140  CA        18.1710    3.8510   15.8080 C.3   162  SER162      0.1924
    141  C         18.7910    2.4620   16.0460 C.2   162  SER162      0.2314
    142  O         20.0030    2.2750   16.1810 O.2   162  SER162     -0.2863
    143  CB        17.4620    4.2750   17.0920 C.3   162  SER162      0.2116
    144  OG        16.1530    3.6820   17.1520 O.3   162  SER162     -0.2180
    145  N         20.8900    0.9220   13.1740 N.3   165  PHE165     -0.1241
    146  CA        22.1920    1.5660   13.1780 C.3   165  PHE165      0.1605
    147  C         23.1220    0.9860   14.2290 C.2   165  PHE165      0.2264
    148  O         24.2510    0.6500   13.9790 O.2   165  PHE165     -0.2867
    149  CB        22.0460    3.0830   13.4220 C.3   165  PHE165      0.0534
    150  CG        23.3420    3.8910   13.3270 C.ar  165  PHE165     -0.0203
    151  CD1       24.4480    3.4390   12.5980 C.ar  165  PHE165     -0.0042
    152  CD2       23.4350    5.1370   13.9470 C.ar  165  PHE165     -0.0042
    153  CE1       25.6210    4.1870   12.4780 C.ar  165  PHE165     -0.0003
    154  CE2       24.6010    5.9000   13.8530 C.ar  165  PHE165     -0.0003
    155  CZ        25.6900    5.4230   13.1200 C.ar  165  PHE165     -0.0000
    156  N         13.6330   -3.4520   20.0540 N.3   208  ASP208     -0.1239
    157  CA        14.2100   -2.9870   18.7920 C.3   208  ASP208      0.1674
    158  C         15.3700   -3.8160   18.3360 C.2   208  ASP208      0.2266
    159  O         15.3860   -4.2800   17.2090 O.2   208  ASP208     -0.2867
    160  CB        14.6520   -1.5150   18.8370 C.3   208  ASP208      0.1410
    161  CG        13.4900   -0.6170   19.1530 C.2   208  ASP208      0.3668
    162  OD1       12.3650   -1.0410   19.3470 O.co2 208  ASP208     -0.2456
    163  OD2       13.8120    0.6530   19.2130 O.co2 208  ASP208     -0.2456
    164  N          9.1200   11.7860   15.2260 N.3   255  SER255     -0.1202
    165  CA         9.1430   11.4470   16.6400 C.3   255  SER255      0.2020
    166  C         10.4960   10.8200   17.0210 C.2   255  SER255      0.2619
    167  O         10.8620    9.6570   16.6770 O.2   255  SER255     -0.2717
    168  CB         7.8890   10.6290   16.9870 C.3   255  SER255      0.2103
    169  OG         7.7050   10.4340   18.3880 O.3   255  SER255     -0.2182
    170  N         11.2800   11.6600   17.6800 N.am  256  ASN256     -0.1960
    171  CA        12.6240   11.2700   18.1140 C.3   256  ASN256      0.1819
    172  C         12.5590   11.0690   19.6140 C.2   256  ASN256      0.2621
    173  O         12.2950   12.0460   20.3260 O.2   256  ASN256     -0.2715
    174  CB        13.6530   12.3270   17.6620 C.3   256  ASN256      0.1195
    175  CG        14.9990   12.0590   18.2530 C.2   256  ASN256      0.2630
    176  OD1       15.1700   12.1180   19.4830 O.2   256  ASN256     -0.2716
    177  ND2       15.9330   11.7210   17.3730 N.am  256  ASN256     -0.0877
    178  N         12.7220    9.7980   20.0700 N.am  257  LYS257     -0.1963
    179  CA        12.5700    9.4000   21.4780 C.3   257  LYS257      0.1728
    180  C         13.4300   10.0790   22.5240 C.2   257  LYS257      0.2616
    181  O         13.0220   10.2310   23.7000 O.2   257  LYS257     -0.2715
    182  CB        12.3330    7.9140   21.7240 C.3   257  LYS257      0.0311
    183  CG        13.4500    6.9800   21.2600 C.3   257  LYS257      0.0038
    184  CD        13.1700    5.5020   21.5570 C.3   257  LYS257      0.0206
    185  CE        14.3460    4.5220   21.3700 C.3   257  LYS257      0.1093
    186  NZ        14.8680    4.3840   19.9800 N.3   257  LYS257     -0.1314
    187  N         14.6180   10.4810   22.0610 N.am  258  PHE258     -0.1974
    188  CA        15.5850   11.1500   22.8800 C.3   258  PHE258      0.1639
    189  C         15.1580   12.5600   23.2040 C.2   258  PHE258      0.2290
    190  O         15.1880   12.9990   24.3350 O.2   258  PHE258     -0.2864
    191  CB        16.8950   11.2760   22.1070 C.3   258  PHE258      0.0560
    192  CG        17.9080   12.1350   22.8240 C.ar  258  PHE258     -0.0200
    193  CD1       18.8220   11.5290   23.6870 C.ar  258  PHE258     -0.0042
    194  CD2       17.9660   13.5190   22.6480 C.ar  258  PHE258     -0.0042
    195  CE1       19.7830   12.2690   24.3740 C.ar  258  PHE258     -0.0003
    196  CE2       18.9140   14.2810   23.3360 C.ar  258  PHE258     -0.0003
    197  CZ        19.8210   13.6510   24.1920 C.ar  258  PHE258     -0.0000
@<TRIPOS>BOND
     1    28    29    1
     2    23    22    2
     3    29    30    1
     4    29    32    1
     5    22    21    1
     6    35    33   ar
     7    30    31    2
     8    90    89    2
     9    33    32    1
    10    33    34   ar
    11    89    88    1
    12    87    88    1
    13    21    20    1
    14    21    24    1
    15    26    25    2
    16    91    92    1
    17    24    25    1
    18    25    27   am
    19    14    15    2
    20    14    13    1
    21    92    93    1
    22    92    95    1
    23    39    38    2
    24    12    13    1
    25    93    94    2
    26    13    16    1
    27    36    37    1
    28    18    19    1
    29    18    17    1
    30    38    37    1
    31    97    95    1
    32    42    44   ar
    33    42    41   ar
    34    95    96    1
    35    37    40    1
    36    44    46   ar
    37   125   124    1
    38    40    41    1
    39    16    17    1
    40    98    99    1
    41    41    43   ar
    42   103   102    1
    43    74    72   ar
    44    74    73   ar
    45    72    70   ar
    46    46    45   ar
    47   104   102    1
    48   124   126    1
    49   124   123    1
    50    73    71   ar
    51    99   102    1
    52    99   100    1
    53   113   114    1
    54   113   110    1
    55    43    45   ar
    56   101   100    2
    57   138   137    1
    58    70    69   ar
    59    70    68   ar
    60   123   120    1
    61   100   105   am
    62   137   134    1
    63    71    68   ar
    64    69    67   ar
    65    68    66   ar
    66     1     2    1
    67   110   109    1
    68   110   111    1
    69   134   133    1
    70   134   135    1
    71   153   151   ar
    72   153   155   ar
    73     2     3    1
    74     2     5    1
    75   151   150   ar
    76    67    66   ar
    77     3     4    2
    78   109   107   am
    79   122   121    2
    80   112   111    2
    81    66    65    1
    82   120   121    1
    83   120   119    1
    84   105   106    1
    85   111   115   am
    86   155   154   ar
    87   145   146    1
    88   146   149    1
    89   146   147    1
    90   133   129   am
    91   136   135    2
    92   107   108    2
    93   107   106    1
    94   150   149    1
    95   150   152   ar
    96   121   127   am
    97   119   117   am
    98   135   139   am
    99    65    62    1
   100   130   129    2
   101   154   152   ar
   102     5     6    1
   103   129   128    1
   104   148   147    2
   105   115   116    1
   106   127   128    1
   107   117   118    2
   108   117   116    1
   109   139   140    1
   110   128   131    1
   111     6     7    1
   112   164   165    1
   113    62    63    1
   114    62    61    1
   115   131   132    1
   116    60    58   ar
   117    63    64    2
   118    61    55   am
   119   140   141    1
   120   140   143    1
   121     8     7    1
   122     8     9    2
   123   141   142    2
   124    11     9    1
   125    59    58   ar
   126    58    57    1
   127   165   168    1
   128   165   166    1
   129   167   166    2
   130     9    10    1
   131   168   169    1
   132   166   170   am
   133   143   144    1
   134    55    54    1
   135    55    56    2
   136   159   158    2
   137   177   175   am
   138    79    80    1
   139    79    76    1
   140    54    57    1
   141    54    53    1
   142   174   171    1
   143   174   175    1
   144   170   171    1
   145    77    78    2
   146    77    76    1
   147    50    49    2
   148   171   172    1
   149    80    81   ar
   150    80    82   ar
   151   175   176    2
   152   158   157    1
   153    76    75    1
   154    81    83   ar
   155    82    84   ar
   156    53    49   am
   157   157   160    1
   158   157   156    1
   159    49    48    1
   160   160   161    1
   161    52    51    1
   162   161   163   ar
   163   161   162   ar
   164    83    85   ar
   165    84    85   ar
   166    85    86    1
   167   172   178   am
   168   172   173    2
   169    51    48    1
   170   186   185    1
   171   178   179    1
   172    48    47    1
   173   183   184    1
   174   183   182    1
   175   185   184    1
   176   179   182    1
   177   179   180    1
   178   187   180   am
   179   187   188    1
   180   191   192    1
   181   191   188    1
   182   180   181    2
   183   194   192   ar
   184   194   196   ar
   185   192   193   ar
   186   188   189    1
   187   189   190    2
   188   196   197   ar
   189   193   195   ar
   190   197   195   ar
