@<TRIPOS>MOLECULE
tmp/2aj4A00.pdb
 122 115 0 0 0
SMALL
GASTEIGER

@<TRIPOS>ATOM
      1  N         12.2580   -2.2340   12.0510 N.3    44  ARG44      -0.1245
      2  CA        11.3130   -3.2080   12.5540 C.3    44  ARG44       0.1563
      3  C          9.9750   -2.5920   12.7340 C.2    44  ARG44       0.2260
      4  O          9.8290   -1.3670   12.8610 O.2    44  ARG44      -0.2867
      5  CB        11.7360   -3.8130   13.9100 C.3    44  ARG44       0.0307
      6  CG        11.8610   -2.8060   15.0640 C.3    44  ARG44       0.0489
      7  CD        10.6560   -2.7010   16.0670 C.3    44  ARG44       0.2205
      8  NE         9.9690   -1.3900   15.9050 N.pl3  44  ARG44      -0.0865
      9  CZ         9.9500   -0.3120   16.7080 C.cat  44  ARG44       0.5346
     10  NH1       10.5260   -0.1820   17.9190 N.pl3  44  ARG44       0.1354
     11  NH2        9.3000    0.7210   16.2680 N.pl3  44  ARG44       0.1354
     12  N          1.9300   -5.2010   21.4600 N.3    49  GLY49      -0.1210
     13  CA         2.7720   -5.2760   22.6610 C.3    49  GLY49       0.1956
     14  C          3.6210   -4.0090   22.7910 C.2    49  GLY49       0.2612
     15  O          4.8440   -4.0650   22.7720 O.2    49  GLY49      -0.2717
     16  N          2.9630   -2.8490   22.8630 N.am   50  GLU50      -0.1965
     17  CA         3.6770   -1.5830   22.9380 C.3    50  GLU50       0.1733
     18  C          3.9470   -1.1290   24.3660 C.2    50  GLU50       0.2616
     19  O          3.1010   -1.2580   25.2380 O.2    50  GLU50      -0.2715
     20  CB         2.9410   -0.4580   22.1620 C.3    50  GLU50       0.0429
     21  CG         3.8770    0.3610   21.2360 C.3    50  GLU50       0.1163
     22  CD         4.4520   -0.4030   20.0740 C.2    50  GLU50       0.3649
     23  OE1        3.8530   -0.7340   19.0520 O.co2  50  GLU50      -0.2457
     24  OE2        5.6980   -0.7000   20.2800 O.co2  50  GLU50      -0.2457
     25  N          5.1400   -0.5980   24.6080 N.am   51  HIS51      -0.1973
     26  CA         5.5040   -0.0610   25.9220 C.3    51  HIS51       0.1656
     27  C          5.3940   -1.0380   27.0800 C.2    51  HIS51       0.2291
     28  O          4.9870   -0.6160   28.1550 O.2    51  HIS51      -0.2864
     29  CB         4.7370    1.2540   26.2660 C.3    51  HIS51       0.0771
     30  CG         5.0640    2.4700   25.4180 C.ar   51  HIS51       0.0820
     31  ND1        6.1740    3.2610   25.6720 N.ar   51  HIS51      -0.2267
     32  CD2        4.4080    3.0150   24.3380 C.ar   51  HIS51       0.1154
     33  CE1        6.1890    4.2240   24.7460 C.ar   51  HIS51       0.1986
     34  NE2        5.1320    4.1120   23.9370 N.ar   51  HIS51      -0.2212
     35  N          7.9160   -3.7800   26.9750 N.3    53  ASP53      -0.1225
     36  CA         9.2450   -4.3490   26.9170 C.3    53  ASP53       0.1805
     37  C         10.0320   -4.0120   28.1590 C.2    53  ASP53       0.2597
     38  O         10.5830   -4.8760   28.7930 O.2    53  ASP53      -0.2718
     39  CB        10.0140   -4.0970   25.5790 C.3    53  ASP53       0.1424
     40  CG        10.5170   -2.6900   25.2560 C.2    53  ASP53       0.3668
     41  OD1       10.0980   -1.6380   25.7510 O.co2  53  ASP53      -0.2456
     42  OD2       11.4670   -2.7250   24.3480 O.co2  53  ASP53      -0.2456
     43  N         10.0410   -2.7410   28.5050 N.am   54  TYR54      -0.1976
     44  CA        10.7540   -2.2990   29.6700 C.3    54  TYR54       0.1639
     45  C         10.1480   -2.8290   30.9560 C.2    54  TYR54       0.2290
     46  O         10.6310   -2.5800   32.0550 O.2    54  TYR54      -0.2864
     47  CB        11.0590   -0.7990   29.6700 C.3    54  TYR54       0.0560
     48  CG         9.9170    0.1110   29.2600 C.ar   54  TYR54      -0.0198
     49  CD1        8.9630    0.4850   30.2020 C.ar   54  TYR54      -0.0009
     50  CD2        9.8050    0.6210   27.9660 C.ar   54  TYR54      -0.0009
     51  CE1        7.9010    1.3230   29.8680 C.ar   54  TYR54       0.0417
     52  CE2        8.7560    1.4730   27.6130 C.ar   54  TYR54       0.0417
     53  CZ         7.8120    1.8380   28.5790 C.ar   54  TYR54       0.1957
     54  OH         6.7650    2.6780   28.3050 O.3    54  TYR54      -0.2866
     55  N          9.7380    5.9100   14.1490 N.3   158  GLY158     -0.1225
     56  CA         9.2540    4.9010   15.0710 C.3   158  GLY158      0.1811
     57  C          9.4870    3.4940   14.4890 C.2   158  GLY158      0.2280
     58  O          8.8870    2.5390   14.9150 O.2   158  GLY158     -0.2866
     59  N         12.5420    2.4050   14.2600 N.3   160  SER160     -0.1217
     60  CA        13.7960    2.1090   14.8270 C.3   160  SER160      0.1889
     61  C         15.0000    2.1190   13.9120 C.2   160  SER160      0.2288
     62  O         15.7640    1.1440   13.8170 O.2   160  SER160     -0.2866
     63  CB        13.6780    0.8240   15.6100 C.3   160  SER160      0.2089
     64  OG        14.9740    0.4890   16.0590 O.3   160  SER160     -0.2183
     65  N         15.1120    2.3020   27.3740 N.3   204  ASN204     -0.1225
     66  CA        14.1580    1.4230   26.7170 C.3   204  ASN204      0.1785
     67  C         14.4210   -0.0540   26.9500 C.2   204  ASN204      0.2597
     68  O         15.4210   -0.4150   27.5570 O.2   204  ASN204     -0.2718
     69  CB        14.1750    1.7120   25.2150 C.3   204  ASN204      0.1169
     70  CG        15.5340    1.5960   24.5430 C.2   204  ASN204      0.2627
     71  OD1       16.6020    1.4420   25.1790 O.2   204  ASN204     -0.2716
     72  ND2       15.4700    1.6550   23.2190 N.am  204  ASN204     -0.0877
     73  N         13.5110   -0.9020   26.4430 N.am  205  GLY205     -0.1957
     74  CA        13.6610   -2.3570   26.5400 C.3   205  GLY205      0.1869
     75  C         14.4880   -2.8050   25.3320 C.2   205  GLY205      0.2309
     76  O         14.9550   -1.9790   24.5410 O.2   205  GLY205     -0.2863
     77  N         13.4470   -4.6110   22.6870 N.3   207  MET207     -0.1230
     78  CA        12.5970   -5.0000   21.5810 C.3   207  MET207      0.1702
     79  C         13.2210   -4.7270   20.2380 C.2   207  MET207      0.2592
     80  O         13.2880   -5.6400   19.4010 O.2   207  MET207     -0.2718
     81  CB        11.1850   -4.3680   21.6210 C.3   207  MET207      0.0401
     82  CG        10.5360   -4.5760   20.2620 C.3   207  MET207      0.0596
     83  SD         8.8070   -4.1030   20.1830 S.3   207  MET207     -0.1393
     84  CE         8.9880   -2.3180   19.9410 C.3   207  MET207      0.0692
     85  N         13.6330   -3.4520   20.0540 N.am  208  ASP208     -0.1974
     86  CA        14.2100   -2.9870   18.7920 C.3   208  ASP208      0.1709
     87  C         15.3700   -3.8160   18.3360 C.2   208  ASP208      0.2293
     88  O         15.3860   -4.2800   17.2090 O.2   208  ASP208     -0.2864
     89  CB        14.6520   -1.5150   18.8370 C.3   208  ASP208      0.1436
     90  CG        13.4900   -0.6170   19.1530 C.2   208  ASP208      0.3671
     91  OD1       12.3650   -1.0410   19.3470 O.co2 208  ASP208     -0.2456
     92  OD2       13.8120    0.6530   19.2130 O.co2 208  ASP208     -0.2456
     93  N         12.7220    9.7980   20.0700 N.3   257  LYS257     -0.1245
     94  CA        12.5700    9.4000   21.4780 C.3   257  LYS257      0.1561
     95  C         13.4300   10.0790   22.5240 C.2   257  LYS257      0.2260
     96  O         13.0220   10.2310   23.7000 O.2   257  LYS257     -0.2867
     97  CB        12.3330    7.9140   21.7240 C.3   257  LYS257      0.0271
     98  CG        13.4500    6.9800   21.2600 C.3   257  LYS257      0.0035
     99  CD        13.1700    5.5020   21.5570 C.3   257  LYS257      0.0206
    100  CE        14.3460    4.5220   21.3700 C.3   257  LYS257      0.1093
    101  NZ        14.8680    4.3840   19.9800 N.3   257  LYS257     -0.1314
    102  N          9.0190    9.5160   26.6730 N.3   265  TYR265     -0.1241
    103  CA         9.5570    8.1870   26.8570 C.3   265  TYR265      0.1605
    104  C          9.9060    7.8640   28.2800 C.2   265  TYR265      0.2264
    105  O          9.2680    7.0230   28.9300 O.2   265  TYR265     -0.2867
    106  CB        10.6540    7.7830   25.8600 C.3   265  TYR265      0.0534
    107  CG        10.8220    6.2820   25.8550 C.ar  265  TYR265     -0.0201
    108  CD1       10.1280    5.5110   24.9240 C.ar  265  TYR265     -0.0009
    109  CD2       11.6770    5.6250   26.7500 C.ar  265  TYR265     -0.0009
    110  CE1       10.2340    4.1190   24.8990 C.ar  265  TYR265      0.0417
    111  CE2       11.8280    4.2340   26.7280 C.ar  265  TYR265      0.0417
    112  CZ        11.1040    3.4890   25.7860 C.ar  265  TYR265      0.1957
    113  OH        11.1960    2.1330   25.6970 O.3   265  TYR265     -0.2866
    114  N          5.7330    1.2190   17.6010 N.3   448  GLY448     -0.1210
    115  CA         6.8600    1.9400   18.1570 C.3   448  GLY448      0.1956
    116  C          6.4130    2.8130   19.3250 C.2   448  GLY448      0.2611
    117  O          5.3350    2.6270   19.8760 O.2   448  GLY448     -0.2717
    118  N          7.2410    3.7610   19.7120 N.am  449  ALA449     -0.1979
    119  CA         6.9260    4.6150   20.8440 C.3   449  ALA449      0.1597
    120  C          5.6710    5.4710   20.7610 C.2   449  ALA449      0.2287
    121  O          5.0690    5.7800   21.7900 O.2   449  ALA449     -0.2864
    122  CB         8.1320    5.4670   21.2030 C.3   449  ALA449      0.0319
@<TRIPOS>BOND
     1     1     2    1
     2     2     3    1
     3     2     5    1
     4     3     4    2
     5    62    61    2
     6     5     6    1
     7    61    60    1
     8    55    56    1
     9    59    60    1
    10    57    58    2
    11    57    56    1
    12    60    63    1
    13     6     7    1
    14    63    64    1
    15     8     7    1
    16     8     9    2
    17    11     9    1
    18     9    10    1
    19    88    87    2
    20   114   115    1
    21   115   116    1
    22    87    86    1
    23    86    89    1
    24    86    85    1
    25    89    90    1
    26    23    22   ar
    27    90    92   ar
    28    90    91   ar
    29   116   118   am
    30   116   117    2
    31    80    79    2
    32   118   119    1
    33    84    83    1
    34   101   100    1
    35    85    79   am
    36    93    94    1
    37    22    24   ar
    38    22    21    1
    39    83    82    1
    40    79    78    1
    41    82    81    1
    42   120   119    1
    43   120   121    2
    44   119   122    1
    45    21    20    1
    46    98    99    1
    47    98    97    1
    48   100    99    1
    49    12    13    1
    50    94    97    1
    51    94    95    1
    52    78    81    1
    53    78    77    1
    54    20    17    1
    55    95    96    2
    56    13    14    1
    57    15    14    2
    58    14    16   am
    59    16    17    1
    60    17    18    1
    61    72    70   am
    62    34    32   ar
    63    34    33   ar
    64    32    30   ar
    65    42    40   ar
    66    18    25   am
    67    18    19    2
    68    76    75    2
    69    70    71    2
    70    70    69    1
    71    25    26    1
    72    33    31   ar
    73   110   108   ar
    74   110   112   ar
    75   108   107   ar
    76    69    66    1
    77    40    39    1
    78    40    41   ar
    79    75    74    1
    80    30    31   ar
    81    30    29    1
    82    39    36    1
    83   113   112    1
    84   112   111   ar
    85   107   106    1
    86   107   109   ar
    87   106   103    1
    88    26    29    1
    89    26    27    1
    90    73    74    1
    91    73    67   am
    92   102   103    1
    93    66    67    1
    94    66    65    1
    95   111   109   ar
    96   103   104    1
    97    36    35    1
    98    36    37    1
    99    67    68    2
   100    27    28    2
   101    52    50   ar
   102    52    53   ar
   103    50    48   ar
   104    37    43   am
   105    37    38    2
   106   104   105    2
   107    54    53    1
   108    43    44    1
   109    53    51   ar
   110    48    47    1
   111    48    49   ar
   112    47    44    1
   113    44    45    1
   114    51    49   ar
   115    45    46    2
