@<TRIPOS>MOLECULE
tmp/2aj8B06.pdb
 178 175 0 0 0
SMALL
GASTEIGER

@<TRIPOS>ATOM
      1  N         -1.3800  -20.2680    1.1390 N.3    87  ARG87      -0.1245
      2  CA        -1.7560  -21.1290    0.0160 C.3    87  ARG87       0.1563
      3  C         -2.4310  -22.4440    0.3860 C.2    87  ARG87       0.2260
      4  O         -3.3730  -22.8530   -0.2890 O.2    87  ARG87      -0.2867
      5  CB        -0.5440  -21.4250   -0.8820 C.3    87  ARG87       0.0307
      6  CG        -0.9300  -22.1150   -2.2020 C.3    87  ARG87       0.0489
      7  CD         0.2730  -22.7800   -2.8870 C.3    87  ARG87       0.2205
      8  NE         1.2950  -21.8300   -3.3270 N.pl3  87  ARG87      -0.0865
      9  CZ         1.2440  -21.1260   -4.4580 C.cat  87  ARG87       0.5346
     10  NH1        0.1970  -21.2620   -5.2820 N.pl3  87  ARG87       0.1354
     11  NH2        2.2480  -20.2940   -4.7810 N.pl3  87  ARG87       0.1354
     12  N          4.8940  -23.0280    2.1380 N.3   167  GLU167     -0.1231
     13  CA         4.9790  -22.6250    0.7580 C.3   167  GLU167      0.1699
     14  C          6.0940  -23.2400   -0.0890 C.2   167  GLU167      0.2592
     15  O          5.8750  -23.5480   -1.2540 O.2   167  GLU167     -0.2718
     16  CB         5.0840  -21.1000    0.7220 C.3   167  GLU167      0.0402
     17  CG         5.2740  -20.4610   -0.6360 C.3   167  GLU167      0.1161
     18  CD         4.0840  -20.6670   -1.5700 C.2   167  GLU167      0.3649
     19  OE1        2.9490  -20.8370   -1.0880 O.co2 167  GLU167     -0.2457
     20  OE2        4.2820  -20.6360   -2.7930 O.co2 167  GLU167     -0.2457
     21  N          7.2740  -23.4360    0.4870 N.am  168  GLU168     -0.1979
     22  CA         8.4030  -23.9150   -0.2990 C.3   168  GLU168      0.1602
     23  C          8.9250  -25.2960   -0.0270 C.2   168  GLU168      0.2287
     24  O          9.6500  -25.8270   -0.8480 O.2   168  GLU168     -0.2864
     25  CB         9.5740  -22.9470   -0.1670 C.3   168  GLU168      0.0415
     26  CG         9.2090  -21.4950   -0.4160 C.3   168  GLU168      0.1163
     27  CD         8.9260  -21.2130   -1.8740 C.2   168  GLU168      0.3649
     28  OE1        8.8200  -22.1720   -2.6770 O.co2 168  GLU168     -0.2457
     29  OE2        8.7960  -20.0310   -2.2170 O.co2 168  GLU168     -0.2457
     30  N          4.8070  -27.8600    0.7480 N.3   171  SER171     -0.1217
     31  CA         3.6810  -27.5410   -0.1340 C.3   171  SER171      0.1889
     32  C          2.4420  -28.0680    0.6130 C.2   171  SER171      0.2288
     33  O          1.5300  -28.6680    0.0340 O.2   171  SER171     -0.2866
     34  CB         3.8220  -28.2120   -1.5160 C.3   171  SER171      0.2089
     35  OG         4.8760  -27.6170   -2.2750 O.3   171  SER171     -0.2183
     36  N         11.8840  -29.3250   -7.1760 N.3   319  PHE319     -0.1241
     37  CA        11.6620  -28.2240   -6.2300 C.3   319  PHE319      0.1605
     38  C         12.0570  -28.6960   -4.8220 C.2   319  PHE319      0.2264
     39  O         12.0780  -27.9210   -3.8530 O.2   319  PHE319     -0.2867
     40  CB        10.1940  -27.7640   -6.2680 C.3   319  PHE319      0.0534
     41  CG         9.8290  -27.0470   -7.5350 C.ar  319  PHE319     -0.0203
     42  CD1       10.0990  -25.6930   -7.6820 C.ar  319  PHE319     -0.0042
     43  CD2        9.2420  -27.7420   -8.6080 C.ar  319  PHE319     -0.0042
     44  CE1        9.7920  -25.0200   -8.8750 C.ar  319  PHE319     -0.0003
     45  CE2        8.9350  -27.0830   -9.8120 C.ar  319  PHE319     -0.0003
     46  CZ         9.2090  -25.7190   -9.9450 C.ar  319  PHE319     -0.0000
     47  N          4.5990  -16.0060  -20.3530 N.3   508  VAL508     -0.1231
     48  CA         5.7950  -16.6300  -19.7970 C.3   508  VAL508      0.1692
     49  C          5.7580  -16.9450  -18.2970 C.2   508  VAL508      0.2592
     50  O          5.0760  -16.2800  -17.5140 O.2   508  VAL508     -0.2718
     51  CB         7.0480  -15.7240  -20.1140 C.3   508  VAL508      0.0266
     52  CG1        6.8500  -14.3400  -19.5180 C.3   508  VAL508      0.0020
     53  CG2        8.3480  -16.3170  -19.5450 C.3   508  VAL508      0.0020
     54  N          6.4480  -18.0230  -17.9360 N.am  509  TYR509     -0.1976
     55  CA         6.6580  -18.4210  -16.5400 C.3   509  TYR509      0.1639
     56  C          8.2060  -18.4240  -16.5500 C.2   509  TYR509      0.2290
     57  O          8.8290  -17.5100  -16.0280 O.2   509  TYR509     -0.2864
     58  CB         6.0530  -19.7990  -16.2530 C.3   509  TYR509      0.0560
     59  CG         6.4340  -20.4370  -14.9260 C.ar  509  TYR509     -0.0198
     60  CD1        5.9190  -21.6910  -14.5740 C.ar  509  TYR509     -0.0009
     61  CD2        7.3450  -19.8350  -14.0510 C.ar  509  TYR509     -0.0009
     62  CE1        6.2990  -22.3270  -13.3870 C.ar  509  TYR509      0.0417
     63  CE2        7.7390  -20.4770  -12.8590 C.ar  509  TYR509      0.0417
     64  CZ         7.2130  -21.7130  -12.5400 C.ar  509  TYR509      0.1957
     65  OH         7.5870  -22.3560  -11.3840 O.3   509  TYR509     -0.2866
     66  N          2.8820  -13.9210  -14.5730 N.3   591  TRP591     -0.1227
     67  CA         2.5810  -13.7910  -13.1550 C.3   591  TRP591      0.1737
     68  C          3.7830  -14.3650  -12.3990 C.2   591  TRP591      0.2596
     69  O          4.4340  -15.2820  -12.9010 O.2   591  TRP591     -0.2718
     70  CB         1.3220  -14.6380  -12.8530 C.3   591  TRP591      0.0564
     71  CG         0.4620  -14.1640  -11.7310 C.ar  591  TRP591      0.0003
     72  CD1        0.8150  -14.0510  -10.4170 C.ar  591  TRP591      0.0946
     73  CD2       -0.9340  -13.7970  -11.8080 C.ar  591  TRP591      0.0152
     74  NE1       -0.2660  -13.6440   -9.6740 N.ar  591  TRP591     -0.2442
     75  CE2       -1.3520  -13.4810  -10.4970 C.ar  591  TRP591      0.0810
     76  CE3       -1.8630  -13.7130  -12.8570 C.ar  591  TRP591      0.0012
     77  CZ2       -2.6780  -13.0770  -10.1930 C.ar  591  TRP591      0.0191
     78  CZ3       -3.1790  -13.3110  -12.5630 C.ar  591  TRP591      0.0001
     79  CH2       -3.5700  -12.9980  -11.2330 C.ar  591  TRP591      0.0015
     80  N          4.0720  -13.8360  -11.2050 N.am  592  SER592     -0.1938
     81  CA         5.1570  -14.3580  -10.3790 C.3   592  SER592      0.2055
     82  C          6.5250  -14.3560  -11.0780 C.2   592  SER592      0.2643
     83  O          7.0160  -13.2890  -11.4930 O.2   592  SER592     -0.2714
     84  CB         4.8010  -15.7790   -9.9520 C.3   592  SER592      0.2130
     85  OG         3.5050  -15.8020   -9.4110 O.3   592  SER592     -0.2179
     86  N          7.1430  -15.5370  -11.2010 N.am  593  TYR593     -0.1973
     87  CA         8.4430  -15.6140  -11.8830 C.3   593  TYR593      0.1639
     88  C          8.2320  -15.0730  -13.3010 C.2   593  TYR593      0.2290
     89  O          9.0820  -14.3620  -13.8430 O.2   593  TYR593     -0.2864
     90  CB         8.9690  -17.0560  -11.9230 C.3   593  TYR593      0.0560
     91  CG        10.4700  -17.1280  -12.2140 C.ar  593  TYR593     -0.0198
     92  CD1       10.9700  -16.8970  -13.5010 C.ar  593  TYR593     -0.0009
     93  CD2       11.3900  -17.3400  -11.1720 C.ar  593  TYR593     -0.0009
     94  CE1       12.3530  -16.8650  -13.7400 C.ar  593  TYR593      0.0417
     95  CE2       12.7690  -17.3080  -11.4060 C.ar  593  TYR593      0.0417
     96  CZ        13.2450  -17.0690  -12.6840 C.ar  593  TYR593      0.1957
     97  OH        14.6150  -17.0180  -12.8940 O.3   593  TYR593     -0.2866
     98  N          8.6230  -10.6580   -8.9470 N.3   618  VAL618     -0.1245
     99  CA         9.7510  -10.5470   -8.0690 C.3   618  VAL618      0.1561
    100  C         10.4960   -9.4310   -8.7980 C.2   618  VAL618      0.2260
    101  O         10.5040   -9.4010  -10.0480 O.2   618  VAL618     -0.2867
    102  CB        10.6400  -11.8260   -8.1070 C.3   618  VAL618      0.0252
    103  CG1       12.0960  -11.4730   -7.7230 C.3   618  VAL618      0.0019
    104  CG2       10.0870  -12.8630   -7.1430 C.3   618  VAL618      0.0019
    105  N         15.8800  -10.4010   -6.0690 N.3   621  TRP621     -0.1241
    106  CA        15.9510  -11.6720   -5.3650 C.3   621  TRP621      0.1605
    107  C         16.1060  -11.6280   -3.8640 C.2   621  TRP621      0.2264
    108  O         15.5390  -12.4710   -3.1580 O.2   621  TRP621     -0.2867
    109  CB        16.9990  -12.5860   -6.0500 C.3   621  TRP621      0.0550
    110  CG        16.4300  -13.1080   -7.3720 C.ar  621  TRP621      0.0003
    111  CD1       16.8610  -12.8090   -8.6430 C.ar  621  TRP621      0.0946
    112  CD2       15.2260  -13.8920   -7.5350 C.ar  621  TRP621      0.0152
    113  NE1       15.9920  -13.3480   -9.5800 N.ar  621  TRP621     -0.2442
    114  CE2       14.9860  -14.0160   -8.9250 C.ar  621  TRP621      0.0810
    115  CE3       14.3290  -14.4980   -6.6370 C.ar  621  TRP621      0.0012
    116  CZ2       13.8800  -14.7280   -9.4390 C.ar  621  TRP621      0.0191
    117  CZ3       13.2230  -15.2200   -7.1560 C.ar  621  TRP621      0.0001
    118  CH2       13.0180  -15.3200   -8.5350 C.ar  621  TRP621      0.0015
    119  N         12.8380  -11.9890   -2.0230 N.3   624  TYR624     -0.1241
    120  CA        12.0370  -13.2080   -2.0130 C.3   624  TYR624      0.1605
    121  C         12.4770  -14.1680   -0.9070 C.2   624  TYR624      0.2264
    122  O         13.5180  -13.9380   -0.2560 O.2   624  TYR624     -0.2867
    123  CB        12.0290  -13.8670   -3.4010 C.3   624  TYR624      0.0534
    124  CG        10.8420  -14.8380   -3.5750 C.ar  624  TYR624     -0.0201
    125  CD1        9.5270  -14.4180   -3.3270 C.ar  624  TYR624     -0.0009
    126  CD2       11.0420  -16.1720   -3.9270 C.ar  624  TYR624     -0.0009
    127  CE1        8.4370  -15.3030   -3.4200 C.ar  624  TYR624      0.0417
    128  CE2        9.9590  -17.0810   -4.0240 C.ar  624  TYR624      0.0417
    129  CZ         8.6610  -16.6350   -3.7680 C.ar  624  TYR624      0.1957
    130  OH         7.6000  -17.5220   -3.8600 O.3   624  TYR624     -0.2866
    131  N         13.3050  -20.9030   -1.5360 N.3   628  TYR628     -0.1241
    132  CA        13.3140  -20.8960   -2.9840 C.3   628  TYR628      0.1605
    133  C         14.5020  -20.1600   -3.5960 C.2   628  TYR628      0.2264
    134  O         15.2330  -20.7070   -4.4150 O.2   628  TYR628     -0.2867
    135  CB        12.0280  -20.2860   -3.5120 C.3   628  TYR628      0.0534
    136  CG        11.9110  -20.2490   -5.0220 C.ar  628  TYR628     -0.0201
    137  CD1       12.4670  -19.2160   -5.7530 C.ar  628  TYR628     -0.0009
    138  CD2       11.1820  -21.2370   -5.7120 C.ar  628  TYR628     -0.0009
    139  CE1       12.3110  -19.1350   -7.1290 C.ar  628  TYR628      0.0417
    140  CE2       11.0190  -21.1770   -7.0970 C.ar  628  TYR628      0.0417
    141  CZ        11.5890  -20.1220   -7.7990 C.ar  628  TYR628      0.1957
    142  OH        11.4820  -20.0760   -9.1690 O.3   628  TYR628     -0.2866
    143  N         18.0210  -21.7440   -3.2310 N.3   631  ARG631     -0.1245
    144  CA        18.1270  -23.0020   -3.9330 C.3   631  ARG631      0.1563
    145  C         18.8320  -22.7790   -5.2450 C.2   631  ARG631      0.2260
    146  O         19.6710  -23.5740   -5.6440 O.2   631  ARG631     -0.2867
    147  CB        16.7460  -23.6010   -4.2150 C.3   631  ARG631      0.0307
    148  CG        16.7960  -24.9960   -4.8490 C.3   631  ARG631      0.0489
    149  CD        15.6440  -25.8470   -4.2920 C.3   631  ARG631      0.2205
    150  NE        14.4270  -25.4090   -4.8880 N.pl3 631  ARG631     -0.0865
    151  CZ        13.2640  -25.1620   -4.2710 C.cat 631  ARG631      0.5346
    152  NH1       13.0900  -25.3150   -2.9530 N.pl3 631  ARG631      0.1354
    153  NH2       12.2600  -24.7260   -5.0350 N.pl3 631  ARG631      0.1354
    154  N          3.2920  -13.5630   -0.2560 N.3   672  ASN672     -0.1225
    155  CA         4.3010  -14.3950   -0.9230 C.3   672  ASN672      0.1785
    156  C          5.3250  -13.4920   -1.5820 C.2   672  ASN672      0.2597
    157  O          6.4750  -13.4380   -1.1680 O.2   672  ASN672     -0.2718
    158  CB         3.6150  -15.2720   -1.9820 C.3   672  ASN672      0.1169
    159  CG         4.5000  -16.4080   -2.4930 C.2   672  ASN672      0.2627
    160  OD1        5.7200  -16.2710   -2.5740 O.2   672  ASN672     -0.2716
    161  ND2        3.8740  -17.5370   -2.8620 N.am  672  ASN672     -0.0877
    162  N          4.9080  -12.8170   -2.6410 N.am  673  VAL673     -0.1980
    163  CA         5.7670  -11.8650   -3.3150 C.3   673  VAL673      0.1595
    164  C          5.2200  -10.5460   -2.7400 C.2   673  VAL673      0.2287
    165  O          4.1590  -10.0500   -3.1340 O.2   673  VAL673     -0.2864
    166  CB         5.5720  -11.9390   -4.8500 C.3   673  VAL673      0.0276
    167  CG1        6.3930  -10.8950   -5.5210 C.3   673  VAL673      0.0022
    168  CG2        5.9610  -13.3610   -5.3680 C.3   673  VAL673      0.0022
    169  N         -1.4310  -13.1760   -3.3220 N.3   702  HIS702     -0.1241
    170  CA        -0.6740  -13.5450   -4.4950 C.3   702  HIS702      0.1621
    171  C         -1.5310  -14.0200   -5.6820 C.2   702  HIS702      0.2264
    172  O         -1.1390  -13.8360   -6.8250 O.2   702  HIS702     -0.2867
    173  CB         0.3640  -14.6010   -4.1530 C.3   702  HIS702      0.0745
    174  CG         1.4070  -14.7330   -5.2040 C.ar  702  HIS702      0.0817
    175  ND1        2.1100  -13.6470   -5.6760 N.ar  702  HIS702     -0.2268
    176  CD2        1.8270  -15.8010   -5.9200 C.ar  702  HIS702      0.1154
    177  CE1        2.9160  -14.0390   -6.6440 C.ar  702  HIS702      0.1986
    178  NE2        2.7610  -15.3410   -6.8110 N.ar  702  HIS702     -0.2212
@<TRIPOS>BOND
     1    47    48    1
     2    51    48    1
     3    51    53    1
     4    51    52    1
     5    48    49    1
     6    49    54   am
     7    49    50    2
     8    54    55    1
     9    56    55    1
    10    56    57    2
    11    55    58    1
    12    58    59    1
    13    59    60   ar
    14    59    61   ar
    15    60    62   ar
    16    66    67    1
    17    61    63   ar
    18    89    88    2
    19    94    92   ar
    20    94    96   ar
    21    92    91   ar
    22    62    64   ar
    23    88    87    1
    24    67    70    1
    25    67    68    1
    26    69    68    2
    27    97    96    1
    28    63    64   ar
    29    76    78   ar
    30    76    73   ar
    31    70    71    1
    32    96    95   ar
    33    78    79   ar
    34    64    65    1
    35    68    80   am
    36    91    90    1
    37    91    93   ar
    38    90    87    1
    39    87    86    1
    40    73    71   ar
    41    73    75   ar
    42    71    72   ar
    43    83    82    2
    44    95    93   ar
    45    79    77   ar
    46    80    81    1
    47    86    82   am
    48    82    81    1
    49    75    77   ar
    50    75    74   ar
    51    72    74   ar
    52    81    84    1
    53   101   100    2
    54    84    85    1
    55    46    45   ar
    56    46    44   ar
    57    45    43   ar
    58   113   114   ar
    59   113   111   ar
    60   116   114   ar
    61   116   118   ar
    62   142   141    1
    63    98    99    1
    64   114   112   ar
    65    44    42   ar
    66   100    99    1
    67   111   110   ar
    68    43    41   ar
    69   118   117   ar
    70   102    99    1
    71   102   103    1
    72   102   104    1
    73   141   139   ar
    74   141   140   ar
    75    42    41   ar
    76   112   110   ar
    77   112   115   ar
    78    41    40    1
    79   110   109    1
    80    36    37    1
    81   117   115   ar
    82   139   137   ar
    83   140   138   ar
    84   172   171    2
    85   178   177   ar
    86   178   176   ar
    87   177   175   ar
    88    40    37    1
    89    37    38    1
    90   105   106    1
    91   109   106    1
    92   176   174   ar
    93   137   136   ar
    94   138   136   ar
    95   171   170    1
    96   175   174   ar
    97   146   145    2
    98   167   166    1
    99   168   166    1
   100   106   107    1
   101    10     9    1
   102   145   144    1
   103   174   173    1
   104   153   151    1
   105   136   135    1
   106   150   149    1
   107   150   151    2
   108   166   163    1
   109   148   149    1
   110   148   147    1
   111    38    39    2
   112    11     9    1
   113   170   173    1
   114   170   169    1
   115     9     8    2
   116   134   133    2
   117   151   152    1
   118   147   144    1
   119   128   126   ar
   120   128   129   ar
   121   144   143    1
   122   126   124   ar
   123   107   108    2
   124   130   129    1
   125   129   127   ar
   126   133   132    1
   127   124   123    1
   128   124   125   ar
   129   135   132    1
   130   127   125   ar
   131   123   120    1
   132     8     7    1
   133   163   164    1
   134   163   162    1
   135   165   164    2
   136   132   131    1
   137     7     6    1
   138   161   159   am
   139    20    18   ar
   140    28    27   ar
   141   162   156   am
   142   160   159    2
   143   159   158    1
   144    35    34    1
   145    29    27   ar
   146     6     5    1
   147   119   120    1
   148   120   121    1
   149   158   155    1
   150    27    26    1
   151   156   157    2
   152   156   155    1
   153    18    19   ar
   154    18    17    1
   155    34    31    1
   156    15    14    2
   157   155   154    1
   158   121   122    2
   159     5     2    1
   160    24    23    2
   161    17    16    1
   162    26    25    1
   163    22    25    1
   164    22    23    1
   165    22    21    1
   166     4     3    2
   167    31    32    1
   168    31    30    1
   169    14    21   am
   170    14    13    1
   171     2     3    1
   172     2     1    1
   173    33    32    2
   174    16    13    1
   175    13    12    1
