@<TRIPOS>MOLECULE
tmp/2ajbB00.pdb
 180 178 0 0 0
SMALL
GASTEIGER

@<TRIPOS>ATOM
      1  N         -1.6210  -20.3670    0.9230 N.3    87  ARG87      -0.1245
      2  CA        -1.9770  -21.1760   -0.2340 C.3    87  ARG87       0.1563
      3  C         -2.5820  -22.5290    0.1610 C.2    87  ARG87       0.2260
      4  O         -3.4730  -23.0200   -0.5180 O.2    87  ARG87      -0.2867
      5  CB        -0.7560  -21.4050   -1.1170 C.3    87  ARG87       0.0307
      6  CG        -1.0610  -22.0740   -2.4330 C.3    87  ARG87       0.0489
      7  CD         0.1710  -22.7420   -3.0320 C.3    87  ARG87       0.2205
      8  NE         1.1780  -21.7930   -3.5150 N.pl3  87  ARG87      -0.0865
      9  CZ         1.0500  -21.0270   -4.5950 C.cat  87  ARG87       0.5346
     10  NH1       -0.0540  -21.0870   -5.3250 N.pl3  87  ARG87       0.1354
     11  NH2        2.0230  -20.1990   -4.9530 N.pl3  87  ARG87       0.1354
     12  N          4.7370  -22.9510    2.0740 N.3   167  GLU167     -0.1231
     13  CA         4.8090  -22.5930    0.6790 C.3   167  GLU167      0.1699
     14  C          5.8920  -23.2840   -0.1410 C.2   167  GLU167      0.2592
     15  O          5.6680  -23.6440   -1.2930 O.2   167  GLU167     -0.2718
     16  CB         5.0090  -21.0830    0.5800 C.3   167  GLU167      0.0402
     17  CG         5.2810  -20.5870   -0.8200 C.3   167  GLU167      0.1161
     18  CD         4.0620  -20.7020   -1.7030 C.2   167  GLU167      0.3649
     19  OE1        2.9900  -21.0530   -1.1510 O.co2 167  GLU167     -0.2457
     20  OE2        4.1800  -20.4300   -2.9230 O.co2 167  GLU167     -0.2457
     21  N          7.0540  -23.4890    0.4680 N.am  168  GLU168     -0.1979
     22  CA         8.2050  -24.0130   -0.2350 C.3   168  GLU168      0.1602
     23  C          8.6960  -25.4110    0.0330 C.2   168  GLU168      0.2287
     24  O          9.3700  -25.9900   -0.8080 O.2   168  GLU168     -0.2864
     25  CB         9.3730  -23.0610    0.0010 C.3   168  GLU168      0.0415
     26  CG         8.9710  -21.6130    0.0280 C.3   168  GLU168      0.1163
     27  CD         8.7720  -21.0540   -1.3510 C.2   168  GLU168      0.3649
     28  OE1        8.3160  -21.7890   -2.2520 O.co2 168  GLU168     -0.2457
     29  OE2        9.0670  -19.8630   -1.5310 O.co2 168  GLU168     -0.2457
     30  N         11.4690  -29.1780   -6.9040 N.3   319  PHE319     -0.1227
     31  CA        11.0930  -28.0850   -6.0000 C.3   319  PHE319      0.1736
     32  C         11.3600  -28.6820   -4.6330 C.2   319  PHE319      0.2595
     33  O         10.8640  -28.2130   -3.6130 O.2   319  PHE319     -0.2718
     34  CB         9.6010  -27.7070   -6.1310 C.3   319  PHE319      0.0547
     35  CG         9.2460  -27.0540   -7.4410 C.ar  319  PHE319     -0.0202
     36  CD1        9.3640  -25.6760   -7.6010 C.ar  319  PHE319     -0.0042
     37  CD2        8.8420  -27.8280   -8.5360 C.ar  319  PHE319     -0.0042
     38  CE1        9.0880  -25.0720   -8.8400 C.ar  319  PHE319     -0.0003
     39  CE2        8.5670  -27.2440   -9.7790 C.ar  319  PHE319     -0.0003
     40  CZ         8.6890  -25.8660   -9.9380 C.ar  319  PHE319     -0.0000
     41  N         12.1560  -29.7430   -4.6480 N.am  320  ARG320     -0.1980
     42  CA        12.5280  -30.4780   -3.4530 C.3   320  ARG320      0.1597
     43  C         13.0020  -31.8470   -3.9140 C.2   320  ARG320      0.2287
     44  O         12.7970  -32.2280   -5.0670 O.2   320  ARG320     -0.2864
     45  CB        11.3200  -30.6380   -2.5300 C.3   320  ARG320      0.0334
     46  CG        10.1130  -31.2950   -3.1860 C.3   320  ARG320      0.0492
     47  CD         8.8880  -31.2320   -2.2750 C.3   320  ARG320      0.2205
     48  NE         8.5010  -29.8430   -1.9810 N.pl3 320  ARG320     -0.0865
     49  CZ         7.7300  -29.0700   -2.7520 C.cat 320  ARG320      0.5346
     50  NH1        7.2230  -29.5230   -3.8990 N.pl3 320  ARG320      0.1354
     51  NH2        7.4700  -27.8280   -2.3720 N.pl3 320  ARG320      0.1354
     52  N          5.9080  -17.7880  -18.0180 N.3   509  TYR509     -0.1241
     53  CA         6.1740  -18.1160  -16.6400 C.3   509  TYR509      0.1605
     54  C          7.6980  -18.2070  -16.6190 C.2   509  TYR509      0.2264
     55  O          8.3850  -17.3160  -16.1260 O.2   509  TYR509     -0.2867
     56  CB         5.5720  -19.4450  -16.2470 C.3   509  TYR509      0.0534
     57  CG         5.7580  -19.6720  -14.7680 C.ar  509  TYR509     -0.0201
     58  CD1        5.0950  -18.8720  -13.8380 C.ar  509  TYR509     -0.0009
     59  CD2        6.6260  -20.6560  -14.2970 C.ar  509  TYR509     -0.0009
     60  CE1        5.2920  -19.0540  -12.4870 C.ar  509  TYR509      0.0417
     61  CE2        6.8320  -20.8460  -12.9520 C.ar  509  TYR509      0.0417
     62  CZ         6.1630  -20.0490  -12.0530 C.ar  509  TYR509      0.1957
     63  OH         6.3380  -20.2740  -10.7110 O.3   509  TYR509     -0.2866
     64  N          2.5780  -13.8840  -14.7320 N.3   591  TRP591     -0.1227
     65  CA         2.1550  -13.7760  -13.3540 C.3   591  TRP591      0.1737
     66  C          3.2850  -14.3300  -12.4760 C.2   591  TRP591      0.2596
     67  O          3.8880  -15.3480  -12.8160 O.2   591  TRP591     -0.2718
     68  CB         0.8790  -14.6090  -13.2050 C.3   591  TRP591      0.0564
     69  CG         0.0160  -14.3140  -12.0250 C.ar  591  TRP591      0.0003
     70  CD1        0.3810  -14.3680  -10.7080 C.ar  591  TRP591      0.0946
     71  CD2       -1.3770  -13.9890  -12.0450 C.ar  591  TRP591      0.0152
     72  NE1       -0.6990  -14.0990   -9.9080 N.ar  591  TRP591     -0.2442
     73  CE2       -1.7950  -13.8630  -10.7000 C.ar  591  TRP591      0.0810
     74  CE3       -2.3160  -13.7940  -13.0670 C.ar  591  TRP591      0.0012
     75  CZ2       -3.1220  -13.5480  -10.3440 C.ar  591  TRP591      0.0191
     76  CZ3       -3.6360  -13.4810  -12.7160 C.ar  591  TRP591      0.0001
     77  CH2       -4.0220  -13.3620  -11.3620 C.ar  591  TRP591      0.0015
     78  N          3.5780  -13.6700  -11.3540 N.am  592  SER592     -0.1938
     79  CA         4.6470  -14.1290  -10.4570 C.3   592  SER592      0.2055
     80  C          5.9900  -14.1790  -11.2090 C.2   592  SER592      0.2643
     81  O          6.5050  -13.1380  -11.6280 O.2   592  SER592     -0.2714
     82  CB         4.3110  -15.5230   -9.8630 C.3   592  SER592      0.2130
     83  OG         5.5060  -16.2140   -9.4780 O.3   592  SER592     -0.2179
     84  N          6.5460  -15.3810  -11.3840 N.am  593  TYR593     -0.1973
     85  CA         7.8110  -15.5160  -12.0850 C.3   593  TYR593      0.1639
     86  C          7.6430  -14.9240  -13.4750 C.2   593  TYR593      0.2290
     87  O          8.5390  -14.2400  -14.0040 O.2   593  TYR593     -0.2864
     88  CB         8.2360  -16.9800  -12.1890 C.3   593  TYR593      0.0560
     89  CG         9.7250  -17.1040  -12.4330 C.ar  593  TYR593     -0.0198
     90  CD1       10.2750  -16.7220  -13.6430 C.ar  593  TYR593     -0.0009
     91  CD2       10.5980  -17.4530  -11.3900 C.ar  593  TYR593     -0.0009
     92  CE1       11.6490  -16.6640  -13.8130 C.ar  593  TYR593      0.0417
     93  CE2       11.9700  -17.3960  -11.5500 C.ar  593  TYR593      0.0417
     94  CZ        12.4920  -16.9920  -12.7660 C.ar  593  TYR593      0.1957
     95  OH        13.8520  -16.8600  -12.9280 O.3   593  TYR593     -0.2866
     96  N          8.0600  -10.5100   -9.1070 N.3   618  VAL618     -0.1245
     97  CA         9.1980  -10.4420   -8.2290 C.3   618  VAL618      0.1561
     98  C          9.9410   -9.3370   -8.9840 C.2   618  VAL618      0.2260
     99  O          9.7530   -9.1910  -10.1910 O.2   618  VAL618     -0.2867
    100  CB         9.9920  -11.7440   -8.2630 C.3   618  VAL618      0.0252
    101  CG1       11.4200  -11.5020   -7.8490 C.3   618  VAL618      0.0019
    102  CG2        9.3490  -12.7530   -7.3270 C.3   618  VAL618      0.0019
    103  N         15.3680  -10.2560   -6.2260 N.3   621  TRP621     -0.1241
    104  CA        15.4140  -11.5110   -5.4970 C.3   621  TRP621      0.1605
    105  C         15.6600  -11.4220   -4.0070 C.2   621  TRP621      0.2264
    106  O         15.2350  -12.3060   -3.2650 O.2   621  TRP621     -0.2867
    107  CB        16.4000  -12.4830   -6.1610 C.3   621  TRP621      0.0550
    108  CG        15.8660  -13.0090   -7.4770 C.ar  621  TRP621      0.0003
    109  CD1       16.2800  -12.6550   -8.7270 C.ar  621  TRP621      0.0946
    110  CD2       14.7110  -13.8330   -7.6600 C.ar  621  TRP621      0.0152
    111  NE1       15.4460  -13.1880   -9.6780 N.ar  621  TRP621     -0.2442
    112  CE2       14.4710  -13.9160   -9.0480 C.ar  621  TRP621      0.0810
    113  CE3       13.8490  -14.5050   -6.7830 C.ar  621  TRP621      0.0012
    114  CZ2       13.4040  -14.6400   -9.5840 C.ar  621  TRP621      0.0191
    115  CZ3       12.7880  -15.2270   -7.3120 C.ar  621  TRP621      0.0001
    116  CH2       12.5730  -15.2870   -8.7050 C.ar  621  TRP621      0.0015
    117  N         12.4320  -11.9790   -2.0770 N.3   624  TYR624     -0.1241
    118  CA        11.7070  -13.2290   -1.9970 C.3   624  TYR624      0.1605
    119  C         12.2440  -14.0870   -0.8640 C.2   624  TYR624      0.2264
    120  O         13.3380  -13.8470   -0.3830 O.2   624  TYR624     -0.2867
    121  CB        11.7720  -13.9700   -3.3320 C.3   624  TYR624      0.0534
    122  CG        10.5790  -14.8960   -3.5100 C.ar  624  TYR624     -0.0201
    123  CD1        9.2720  -14.3920   -3.4490 C.ar  624  TYR624     -0.0009
    124  CD2       10.7470  -16.2770   -3.6680 C.ar  624  TYR624     -0.0009
    125  CE1        8.1790  -15.2250   -3.5310 C.ar  624  TYR624      0.0417
    126  CE2        9.6470  -17.1190   -3.7520 C.ar  624  TYR624      0.0417
    127  CZ         8.3650  -16.5830   -3.6790 C.ar  624  TYR624      0.1957
    128  OH         7.2680  -17.4070   -3.7220 O.3   624  TYR624     -0.2866
    129  N         13.0570  -20.8110   -1.3890 N.3   628  TYR628     -0.1241
    130  CA        12.9650  -20.8200   -2.8380 C.3   628  TYR628      0.1605
    131  C         14.1430  -20.0770   -3.4360 C.2   628  TYR628      0.2264
    132  O         14.8860  -20.6460   -4.2160 O.2   628  TYR628     -0.2867
    133  CB        11.6400  -20.1930   -3.3140 C.3   628  TYR628      0.0534
    134  CG        11.4890  -20.0550   -4.8270 C.ar  628  TYR628     -0.0201
    135  CD1       12.0790  -18.9900   -5.5280 C.ar  628  TYR628     -0.0009
    136  CD2       10.7450  -20.9790   -5.5540 C.ar  628  TYR628     -0.0009
    137  CE1       11.9210  -18.8500   -6.9090 C.ar  628  TYR628      0.0417
    138  CE2       10.5860  -20.8580   -6.9290 C.ar  628  TYR628      0.0417
    139  CZ        11.1690  -19.7940   -7.6070 C.ar  628  TYR628      0.1957
    140  OH        10.9840  -19.6870   -8.9770 O.3   628  TYR628     -0.2866
    141  N         17.7510  -21.5430   -3.1480 N.3   631  ARG631     -0.1245
    142  CA        17.8030  -22.7820   -3.9100 C.3   631  ARG631      0.1563
    143  C         18.4190  -22.6140   -5.2850 C.2   631  ARG631      0.2260
    144  O         19.1540  -23.4800   -5.7420 O.2   631  ARG631     -0.2867
    145  CB        16.4010  -23.3610   -4.0740 C.3   631  ARG631      0.0307
    146  CG        16.3590  -24.6720   -4.8440 C.3   631  ARG631      0.0489
    147  CD        15.2820  -25.5700   -4.2850 C.3   631  ARG631      0.2205
    148  NE        13.9620  -25.0720   -4.6480 N.pl3 631  ARG631     -0.0865
    149  CZ        12.9110  -25.0120   -3.8370 C.cat 631  ARG631      0.5346
    150  NH1       12.9930  -25.4160   -2.5800 N.pl3 631  ARG631      0.1354
    151  NH2       11.7710  -24.5420   -4.3070 N.pl3 631  ARG631      0.1354
    152  N          2.8690  -13.6780   -0.5090 N.3   672  ASN672     -0.1225
    153  CA         3.8780  -14.4930   -1.1920 C.3   672  ASN672      0.1785
    154  C          4.9210  -13.5700   -1.8190 C.2   672  ASN672      0.2597
    155  O          6.0270  -13.4140   -1.2960 O.2   672  ASN672     -0.2718
    156  CB         3.1960  -15.3180   -2.2710 C.3   672  ASN672      0.1169
    157  CG         3.9850  -16.5170   -2.6520 C.2   672  ASN672      0.2627
    158  OD1        5.2000  -16.4420   -2.7900 O.2   672  ASN672     -0.2716
    159  ND2        3.3040  -17.6440   -2.8390 N.am  672  ASN672     -0.0877
    160  N          4.5650  -12.9760   -2.9520 N.am  673  VAL673     -0.1980
    161  CA         5.4370  -12.0130   -3.6160 C.3   673  VAL673      0.1595
    162  C          4.9010  -10.7010   -3.0600 C.2   673  VAL673      0.2287
    163  O          3.8860  -10.1800   -3.5190 O.2   673  VAL673     -0.2864
    164  CB         5.2770  -12.0740   -5.1490 C.3   673  VAL673      0.0276
    165  CG1        6.0730  -10.9720   -5.8180 C.3   673  VAL673      0.0022
    166  CG2        5.7520  -13.4260   -5.6470 C.3   673  VAL673      0.0022
    167  N         -1.9180  -13.1770   -3.2470 N.3   702  HIS702     -0.1226
    168  CA        -1.1470  -13.5280   -4.4320 C.3   702  HIS702      0.1752
    169  C         -1.9340  -13.9600   -5.6610 C.2   702  HIS702      0.2596
    170  O         -1.5070  -13.7210   -6.7810 O.2   702  HIS702     -0.2718
    171  CB        -0.1140  -14.6000   -4.1250 C.3   702  HIS702      0.0759
    172  CG         0.9110  -14.7510   -5.2060 C.ar  702  HIS702      0.0818
    173  ND1        1.6420  -13.6860   -5.6880 N.ar  702  HIS702     -0.2268
    174  CD2        1.3480  -15.8390   -5.8780 C.ar  702  HIS702      0.1154
    175  CE1        2.4880  -14.1140   -6.6060 C.ar  702  HIS702      0.1986
    176  NE2        2.3300  -15.4170   -6.7400 N.ar  702  HIS702     -0.2212
    177  N         -3.0740  -14.6050   -5.4640 N.am  703  GLY703     -0.1957
    178  CA        -3.8480  -15.0270   -6.6080 C.3   703  GLY703      0.1869
    179  C         -4.8730  -14.0370   -7.1450 C.2   703  GLY703      0.2309
    180  O         -5.4230  -14.2780   -8.2130 O.2   703  GLY703     -0.2863
@<TRIPOS>BOND
     1    52    53    1
     2    53    54    1
     3    53    56    1
     4    54    55    2
     5    56    57    1
     6    57    59   ar
     7    57    58   ar
     8    64    65    1
     9    59    61   ar
    10    87    86    2
    11    58    60   ar
    12    92    90   ar
    13    92    94   ar
    14    90    89   ar
    15    86    85    1
    16    65    68    1
    17    65    66    1
    18    68    69    1
    19    74    76   ar
    20    74    71   ar
    21    61    62   ar
    22    95    94    1
    23    67    66    2
    24    94    93   ar
    25    76    77   ar
    26    60    62   ar
    27    66    78   am
    28    89    88    1
    29    89    91   ar
    30    88    85    1
    31    85    84    1
    32    62    63    1
    33    71    69   ar
    34    71    73   ar
    35    69    70   ar
    36    81    80    2
    37    93    91   ar
    38    84    80   am
    39    77    75   ar
    40    78    79    1
    41    80    79    1
    42    70    72   ar
    43    73    75   ar
    44    73    72   ar
    45    79    82    1
    46    99    98    2
    47    40    39   ar
    48    40    38   ar
    49    82    83    1
    50    39    37   ar
    51   111   112   ar
    52   111   109   ar
    53   114   112   ar
    54   114   116   ar
    55    96    97    1
    56   112   110   ar
    57    98    97    1
    58   140   139    1
    59    38    36   ar
    60   109   108   ar
    61   116   115   ar
    62    37    35   ar
    63   100    97    1
    64   100   101    1
    65   100   102    1
    66   180   179    2
    67   110   108   ar
    68   110   113   ar
    69   139   138   ar
    70   139   137   ar
    71    36    35   ar
    72   108   107    1
    73    35    34    1
    74   115   113   ar
    75   179   178    1
    76   138   136   ar
    77   137   135   ar
    78    30    31    1
    79   170   169    2
    80   176   175   ar
    81   176   174   ar
    82   178   177    1
    83   175   173   ar
    84   103   104    1
    85   107   104    1
    86    34    31    1
    87    31    32    1
    88   174   172   ar
    89   165   164    1
    90   144   143    2
    91   173   172   ar
    92   169   177   am
    93   169   168    1
    94   166   164    1
    95   136   134   ar
    96   135   134   ar
    97   104   105    1
    98    10     9    1
    99   143   142    1
   100   172   171    1
   101   164   161    1
   102    44    43    2
   103    11     9    1
   104   146   147    1
   105   146   145    1
   106   134   133    1
   107    41    32   am
   108    41    42    1
   109   148   147    1
   110   148   149    2
   111    32    33    2
   112     9     8    2
   113   168   171    1
   114   168   167    1
   115   151   149    1
   116   132   131    2
   117   145   142    1
   118   105   106    2
   119    43    42    1
   120   142   141    1
   121    50    49    1
   122   149   150    1
   123   126   127   ar
   124   126   124   ar
   125   128   127    1
   126   127   125   ar
   127   124   122   ar
   128   161   162    1
   129   161   160    1
   130   125   123   ar
   131   163   162    2
   132     8     7    1
   133   122   123   ar
   134   122   121    1
   135    42    45    1
   136   131   130    1
   137   121   118    1
   138   133   130    1
   139    46    45    1
   140    46    47    1
   141     7     6    1
   142   160   154   am
   143    20    18   ar
   144   159   157   am
   145   130   129    1
   146   158   157    2
   147    49    51    1
   148    49    48    2
   149   157   156    1
   150     6     5    1
   151    47    48    1
   152   156   153    1
   153    28    27   ar
   154   117   118    1
   155   118   119    1
   156   154   155    2
   157   154   153    1
   158    18    19   ar
   159    18    17    1
   160    29    27   ar
   161    27    26    1
   162    15    14    2
   163   153   152    1
   164     5     2    1
   165   119   120    2
   166    17    16    1
   167    24    23    2
   168     4     3    2
   169    22    25    1
   170    22    23    1
   171    22    21    1
   172     2     3    1
   173     2     1    1
   174    14    21   am
   175    14    13    1
   176    25    26    1
   177    16    13    1
   178    13    12    1
