@<TRIPOS>MOLECULE
tmp/2ajbB05.pdb
 87 82 0 0 0
SMALL
GASTEIGER

@<TRIPOS>ATOM
      1  N         21.8420  -17.8430  -11.6880 N.3   559  ARG559     -0.1245
      2  CA        21.7910  -16.6970  -12.5910 C.3   559  ARG559      0.1563
      3  C         20.3890  -16.4330  -13.1550 C.2   559  ARG559      0.2260
      4  O         20.1930  -16.3140  -14.3630 O.2   559  ARG559     -0.2867
      5  CB        22.8090  -16.8590  -13.7260 C.3   559  ARG559      0.0307
      6  CG        22.5450  -18.0210  -14.6760 C.3   559  ARG559      0.0489
      7  CD        23.6020  -18.0910  -15.8010 C.3   559  ARG559      0.2205
      8  NE        23.5290  -16.9990  -16.7800 N.pl3 559  ARG559     -0.0865
      9  CZ        24.4960  -16.0990  -16.9830 C.cat 559  ARG559      0.5346
     10  NH1       25.6230  -16.1540  -16.2750 N.pl3 559  ARG559      0.1354
     11  NH2       24.3400  -15.1340  -17.8930 N.pl3 559  ARG559      0.1354
     12  N         17.0530  -14.6360  -14.3530 N.3   561  GLY561     -0.1210
     13  CA        16.8680  -13.3990  -15.0890 C.3   561  GLY561      0.1956
     14  C         17.7780  -13.3270  -16.3050 C.2   561  GLY561      0.2613
     15  O         17.8110  -12.3010  -16.9910 O.2   561  GLY561     -0.2717
     16  N         18.5160  -14.4060  -16.5820 N.am  562  THR562     -0.1938
     17  CA        19.4110  -14.4220  -17.7300 C.3   562  THR562      0.2028
     18  C         18.9320  -15.2730  -18.9300 C.2   562  THR562      0.2642
     19  O         18.1500  -14.7960  -19.7540 O.2   562  THR562     -0.2714
     20  CB        20.8270  -14.8730  -17.3130 C.3   562  THR562      0.1808
     21  OG1       20.8250  -16.2770  -16.9790 O.3   562  THR562     -0.2208
     22  CG2       21.3060  -14.0500  -16.1120 C.3   562  THR562      0.0379
     23  N         19.3720  -16.5270  -19.0280 N.am  563  PHE563     -0.1973
     24  CA        18.9930  -17.3590  -20.1700 C.3   563  PHE563      0.1639
     25  C         17.4940  -17.5330  -20.4030 C.2   563  PHE563      0.2290
     26  O         17.0340  -17.4520  -21.5510 O.2   563  PHE563     -0.2864
     27  CB        19.6460  -18.7460  -20.0890 C.3   563  PHE563      0.0560
     28  CG        21.1390  -18.7130  -19.8860 C.ar  563  PHE563     -0.0200
     29  CD1       21.9180  -17.7320  -20.4800 C.ar  563  PHE563     -0.0042
     30  CD2       21.7610  -19.6680  -19.0870 C.ar  563  PHE563     -0.0042
     31  CE1       23.2820  -17.6930  -20.2820 C.ar  563  PHE563     -0.0003
     32  CE2       23.1280  -19.6360  -18.8850 C.ar  563  PHE563     -0.0003
     33  CZ        23.8890  -18.6360  -19.4890 C.ar  563  PHE563     -0.0000
     34  N         16.3460  -14.3740  -21.8640 N.3   566  GLU566     -0.1245
     35  CA        16.9220  -14.2910  -23.2010 C.3   566  GLU566      0.1567
     36  C         16.2490  -15.2550  -24.1840 C.2   566  GLU566      0.2260
     37  O         15.9860  -14.8990  -25.3310 O.2   566  GLU566     -0.2867
     38  CB        18.4280  -14.5710  -23.1240 C.3   566  GLU566      0.0388
     39  CG        19.2010  -13.5190  -22.3410 C.3   566  GLU566      0.1160
     40  CD        20.6240  -13.9320  -22.0770 C.2   566  GLU566      0.3649
     41  OE1       21.2790  -14.4040  -23.0240 O.co2 566  GLU566     -0.2457
     42  OE2       21.0980  -13.7850  -20.9310 O.co2 566  GLU566     -0.2457
     43  N         11.5930   -8.2540  -17.0700 N.3   600  MET600     -0.1245
     44  CA        12.9820   -8.2400  -17.5370 C.3   600  MET600      0.1570
     45  C         13.0300   -8.1730  -19.0790 C.2   600  MET600      0.2261
     46  O         13.8890   -7.4950  -19.6560 O.2   600  MET600     -0.2867
     47  CB        13.7160   -9.4880  -17.0430 C.3   600  MET600      0.0387
     48  CG        13.8310   -9.6050  -15.5390 C.3   600  MET600      0.0595
     49  SD        14.8020   -8.2730  -14.8570 S.3   600  MET600     -0.1393
     50  CE        16.4070   -9.0450  -14.6750 C.3   600  MET600      0.0692
     51  N         25.2030  -11.5240   -8.8670 N.3   644  TYR644     -0.1241
     52  CA        24.1150  -11.8610   -9.7650 C.3   644  TYR644      0.1605
     53  C         22.7620  -11.5480   -9.1810 C.2   644  TYR644      0.2264
     54  O         21.7640  -11.4860   -9.8930 O.2   644  TYR644     -0.2867
     55  CB        24.2210  -13.3230  -10.1780 C.3   644  TYR644      0.0534
     56  CG        25.3210  -13.5270  -11.1880 C.ar  644  TYR644     -0.0201
     57  CD1       26.6390  -13.1830  -10.8910 C.ar  644  TYR644     -0.0009
     58  CD2       25.0420  -14.0240  -12.4510 C.ar  644  TYR644     -0.0009
     59  CE1       27.6490  -13.3330  -11.8270 C.ar  644  TYR644      0.0417
     60  CE2       26.0450  -14.1790  -13.3980 C.ar  644  TYR644      0.0417
     61  CZ        27.3460  -13.8350  -13.0820 C.ar  644  TYR644      0.1957
     62  OH        28.3390  -14.0280  -14.0170 O.3   644  TYR644     -0.2866
     63  N         22.5940   -7.5690  -10.4740 N.3   647  ASN647     -0.1225
     64  CA        22.3330   -7.1890  -11.8510 C.3   647  ASN647      0.1785
     65  C         21.1260   -7.8960  -12.4520 C.2   647  ASN647      0.2597
     66  O         20.8460   -7.7620  -13.6420 O.2   647  ASN647     -0.2718
     67  CB        23.6030   -7.3380  -12.7090 C.3   647  ASN647      0.1169
     68  CG        23.8350   -8.7490  -13.2310 C.2   647  ASN647      0.2627
     69  OD1       23.6860   -9.7360  -12.5160 O.2   647  ASN647     -0.2716
     70  ND2       24.2290   -8.8140  -14.5010 N.am  647  ASN647     -0.0877
     71  N         20.3790   -8.5950  -11.5950 N.am  648  SER648     -0.1952
     72  CA        19.1660   -9.3050  -12.0040 C.3   648  SER648      0.1924
     73  C         17.8370   -8.7030  -11.5000 C.2   648  SER648      0.2314
     74  O         16.8030   -9.3680  -11.5500 O.2   648  SER648     -0.2863
     75  CB        19.2340  -10.7630  -11.5690 C.3   648  SER648      0.2116
     76  OG        19.3310  -10.8680  -10.1690 O.3   648  SER648     -0.2180
     77  N         17.0120   -2.4980  -15.1270 N.3   653  ARG653     -0.1245
     78  CA        16.7190   -2.2590  -16.5350 C.3   653  ARG653      0.1563
     79  C         15.6750   -1.1410  -16.7420 C.2   653  ARG653      0.2260
     80  O         15.2210   -0.9270  -17.8670 O.2   653  ARG653     -0.2867
     81  CB        16.1700   -3.5320  -17.1790 C.3   653  ARG653      0.0307
     82  CG        17.1110   -4.7120  -17.4050 C.3   653  ARG653      0.0489
     83  CD        16.2490   -5.8430  -17.9690 C.3   653  ARG653      0.2205
     84  NE        16.9240   -6.9920  -18.5910 N.pl3 653  ARG653     -0.0865
     85  CZ        17.9150   -7.6750  -18.0410 C.cat 653  ARG653      0.5346
     86  NH1       18.3780   -7.3190  -16.8500 N.pl3 653  ARG653      0.1354
     87  NH2       18.4060   -8.7350  -18.6610 N.pl3 653  ARG653      0.1354
@<TRIPOS>BOND
     1    37    36    2
     2    36    35    1
     3    35    38    1
     4    35    34    1
     5    38    39    1
     6    41    40   ar
     7    39    40    1
     8    40    42   ar
     9    26    25    2
    10    29    31   ar
    11    29    28   ar
    12    25    24    1
    13    31    33   ar
    14    24    27    1
    15    24    23    1
    16    27    28    1
    17    28    30   ar
    18    19    18    2
    19    46    45    2
    20    33    32   ar
    21    30    32   ar
    22    45    44    1
    23    23    18   am
    24    18    17    1
    25    87    85    1
    26    84    85    2
    27    84    83    1
    28    85    86    1
    29    83    82    1
    30    11     9    1
    31    80    79    2
    32    17    20    1
    33    17    16    1
    34    44    43    1
    35    44    47    1
    36    82    81    1
    37    20    21    1
    38    20    22    1
    39    81    78    1
    40    47    48    1
    41    15    14    2
    42     9     8    2
    43     9    10    1
    44     8     7    1
    45    79    78    1
    46    16    14   am
    47    78    77    1
    48    14    13    1
    49     7     6    1
    50    48    49    1
    51    13    12    1
    52    49    50    1
    53     6     5    1
    54    70    68   am
    55     4     3    2
    56    62    61    1
    57     5     2    1
    58    66    65    2
    59    60    61   ar
    60    60    58   ar
    61    68    67    1
    62    68    69    2
    63     3     2    1
    64    61    59   ar
    65    67    64    1
    66     2     1    1
    67    65    64    1
    68    65    71   am
    69    58    56   ar
    70    72    71    1
    71    72    75    1
    72    72    73    1
    73    64    63    1
    74    59    57   ar
    75    75    76    1
    76    74    73    2
    77    56    57   ar
    78    56    55    1
    79    55    52    1
    80    54    53    2
    81    52    53    1
    82    52    51    1
