@<TRIPOS>MOLECULE
tmp/2ajcB06.pdb
 107 102 0 0 0
SMALL
GASTEIGER

@<TRIPOS>ATOM
      1  N         -1.3980  -20.2750    0.9090 N.3    87  ARG87      -0.1245
      2  CA        -1.7350  -21.1270   -0.2400 C.3    87  ARG87       0.1563
      3  C         -2.4120  -22.4620    0.1170 C.2    87  ARG87       0.2260
      4  O         -3.3050  -22.9050   -0.6140 O.2    87  ARG87      -0.2867
      5  CB        -0.5010  -21.4010   -1.0980 C.3    87  ARG87       0.0307
      6  CG        -0.8450  -22.0590   -2.4580 C.3    87  ARG87       0.0489
      7  CD         0.3820  -22.5810   -3.1380 C.3    87  ARG87       0.2205
      8  NE         1.3480  -21.5540   -3.5410 N.pl3  87  ARG87      -0.0865
      9  CZ         1.3170  -20.8970   -4.6970 C.cat  87  ARG87       0.5346
     10  NH1        0.3480  -21.1370   -5.5900 N.pl3  87  ARG87       0.1354
     11  NH2        2.2870  -20.0370   -4.9930 N.pl3  87  ARG87       0.1354
     12  N          4.8380  -23.0010    2.0780 N.3   167  GLU167     -0.1231
     13  CA         4.9570  -22.6350    0.6860 C.3   167  GLU167      0.1699
     14  C          6.0480  -23.3020   -0.1590 C.2   167  GLU167      0.2592
     15  O          5.7790  -23.7150   -1.3020 O.2   167  GLU167     -0.2718
     16  CB         5.0910  -21.1010    0.5870 C.3   167  GLU167      0.0402
     17  CG         5.3360  -20.5050   -0.8170 C.3   167  GLU167      0.1161
     18  CD         4.1550  -20.6250   -1.8020 C.2   167  GLU167      0.3649
     19  OE1        3.0170  -20.9560   -1.3980 O.co2 167  GLU167     -0.2457
     20  OE2        4.3710  -20.3440   -3.0010 O.co2 167  GLU167     -0.2457
     21  N          7.2530  -23.4380    0.4020 N.am  168  GLU168     -0.1979
     22  CA         8.3850  -23.9170   -0.3730 C.3   168  GLU168      0.1602
     23  C          8.9490  -25.2970   -0.1040 C.2   168  GLU168      0.2287
     24  O          9.7910  -25.7710   -0.8650 O.2   168  GLU168     -0.2864
     25  CB         9.5400  -22.9160   -0.2130 C.3   168  GLU168      0.0415
     26  CG         9.1550  -21.4390   -0.3860 C.3   168  GLU168      0.1163
     27  CD         8.8500  -21.0690   -1.8100 C.2   168  GLU168      0.3649
     28  OE1        8.7160  -21.9670   -2.6860 O.co2 168  GLU168     -0.2457
     29  OE2        8.7520  -19.8580   -2.0550 O.co2 168  GLU168     -0.2457
     30  N         11.7300  -29.2970   -7.1440 N.3   319  PHE319     -0.1241
     31  CA        11.4460  -28.2310   -6.1970 C.3   319  PHE319      0.1605
     32  C         11.8440  -28.6950   -4.7900 C.2   319  PHE319      0.2264
     33  O         11.8300  -27.9250   -3.8310 O.2   319  PHE319     -0.2867
     34  CB         9.9560  -27.8690   -6.2340 C.3   319  PHE319      0.0534
     35  CG         9.5420  -27.1770   -7.5130 C.ar  319  PHE319     -0.0203
     36  CD1        9.8850  -25.8500   -7.7300 C.ar  319  PHE319     -0.0042
     37  CD2        8.8520  -27.8710   -8.5170 C.ar  319  PHE319     -0.0042
     38  CE1        9.5560  -25.2090   -8.9410 C.ar  319  PHE319     -0.0003
     39  CE2        8.5090  -27.2460   -9.7380 C.ar  319  PHE319     -0.0003
     40  CZ         8.8650  -25.9020   -9.9520 C.ar  319  PHE319     -0.0000
     41  N          5.8780  -17.9230  -18.1030 N.3   509  TYR509     -0.1241
     42  CA         6.0610  -18.4080  -16.7380 C.3   509  TYR509      0.1605
     43  C          7.5990  -18.3980  -16.6430 C.2   509  TYR509      0.2264
     44  O          8.1790  -17.4870  -16.0460 O.2   509  TYR509     -0.2867
     45  CB         5.4980  -19.8090  -16.5890 C.3   509  TYR509      0.0534
     46  CG         5.7930  -20.5030  -15.2730 C.ar  509  TYR509     -0.0201
     47  CD1        5.3430  -21.8100  -15.0650 C.ar  509  TYR509     -0.0009
     48  CD2        6.5640  -19.8970  -14.2610 C.ar  509  TYR509     -0.0009
     49  CE1        5.6510  -22.4980  -13.9010 C.ar  509  TYR509      0.0417
     50  CE2        6.8860  -20.5870  -13.0740 C.ar  509  TYR509      0.0417
     51  CZ         6.4190  -21.8930  -12.9060 C.ar  509  TYR509      0.1957
     52  OH         6.6670  -22.6430  -11.7570 O.3   509  TYR509     -0.2866
     53  N         12.4790  -25.0940  -13.6530 N.3   513  CYS513     -0.1221
     54  CA        11.6520  -26.3090  -13.7450 C.3   513  CYS513      0.1808
     55  C         10.2110  -26.0360  -14.1480 C.2   513  CYS513      0.2601
     56  O          9.3270  -26.8680  -13.9420 O.2   513  CYS513     -0.2717
     57  CB        11.6780  -27.1250  -12.4540 C.3   513  CYS513      0.0970
     58  SG        11.2890  -28.9300  -12.7010 S.3   513  CYS513     -0.0800
     59  N          9.9720  -24.8780  -14.7460 N.am  514  SER514     -0.1952
     60  CA         8.6170  -24.5410  -15.2050 C.3   514  SER514      0.1924
     61  C          8.2650  -25.3610  -16.4630 C.2   514  SER514      0.2314
     62  O          9.1440  -25.8700  -17.1570 O.2   514  SER514     -0.2863
     63  CB         8.5350  -23.0560  -15.5970 C.3   514  SER514      0.2116
     64  OG         9.5130  -22.7380  -16.6140 O.3   514  SER514     -0.2180
     65  N         12.5280  -11.8870   -2.0700 N.3   624  TYR624     -0.1241
     66  CA        11.7790  -13.1310   -2.0350 C.3   624  TYR624      0.1605
     67  C         12.2900  -14.0500   -0.9290 C.2   624  TYR624      0.2264
     68  O         13.3020  -13.7240   -0.2630 O.2   624  TYR624     -0.2867
     69  CB        11.7830  -13.8160   -3.4190 C.3   624  TYR624      0.0534
     70  CG        10.6100  -14.7590   -3.5930 C.ar  624  TYR624     -0.0201
     71  CD1        9.2960  -14.3230   -3.3720 C.ar  624  TYR624     -0.0009
     72  CD2       10.8110  -16.1210   -3.9180 C.ar  624  TYR624     -0.0009
     73  CE1        8.2030  -15.2120   -3.4450 C.ar  624  TYR624      0.0417
     74  CE2        9.7260  -17.0180   -4.0150 C.ar  624  TYR624      0.0417
     75  CZ         8.4240  -16.5530   -3.7670 C.ar  624  TYR624      0.1957
     76  OH         7.3610  -17.4330   -3.7980 O.3   624  TYR624     -0.2866
     77  N         13.1950  -20.7520   -1.5680 N.3   628  TYR628     -0.1241
     78  CA        13.0970  -20.7510   -3.0170 C.3   628  TYR628      0.1605
     79  C         14.2670  -20.0170   -3.6560 C.2   628  TYR628      0.2264
     80  O         14.9650  -20.5490   -4.5220 O.2   628  TYR628     -0.2867
     81  CB        11.7820  -20.0970   -3.4670 C.3   628  TYR628      0.0534
     82  CG        11.5740  -20.0280   -4.9840 C.ar  628  TYR628     -0.0201
     83  CD1       12.1750  -19.0260   -5.7550 C.ar  628  TYR628     -0.0009
     84  CD2       10.7630  -20.9690   -5.6360 C.ar  628  TYR628     -0.0009
     85  CE1       11.9720  -18.9660   -7.1480 C.ar  628  TYR628      0.0417
     86  CE2       10.5470  -20.9150   -7.0270 C.ar  628  TYR628      0.0417
     87  CZ        11.1580  -19.9140   -7.7700 C.ar  628  TYR628      0.1957
     88  OH        10.9650  -19.8810   -9.1270 O.3   628  TYR628     -0.2866
     89  N         17.7750  -21.6420   -3.3570 N.3   631  ARG631     -0.1245
     90  CA        17.8470  -22.8910   -4.0890 C.3   631  ARG631      0.1563
     91  C         18.5170  -22.6520   -5.4350 C.2   631  ARG631      0.2260
     92  O         19.3400  -23.4530   -5.8770 O.2   631  ARG631     -0.2867
     93  CB        16.4390  -23.4590   -4.3400 C.3   631  ARG631      0.0307
     94  CG        16.4040  -24.9120   -4.8200 C.3   631  ARG631      0.0489
     95  CD        15.2650  -25.6490   -4.0590 C.3   631  ARG631      0.2205
     96  NE        14.0410  -25.2230   -4.6540 N.pl3 631  ARG631     -0.0865
     97  CZ        12.8680  -25.0400   -4.0700 C.cat 631  ARG631      0.5346
     98  NH1       12.6540  -25.2420   -2.7710 N.pl3 631  ARG631      0.1354
     99  NH2       11.8950  -24.6440   -4.8640 N.pl3 631  ARG631      0.1354
    100  N          3.0980  -13.5050   -0.2440 N.3   672  ASN672     -0.1240
    101  CA         4.0760  -14.3530   -0.9280 C.3   672  ASN672      0.1653
    102  C          5.1080  -13.4990   -1.6710 C.2   672  ASN672      0.2266
    103  O          6.2720  -13.4410   -1.2740 O.2   672  ASN672     -0.2867
    104  CB         3.2990  -15.2660   -1.8870 C.3   672  ASN672      0.1155
    105  CG         4.1480  -16.3620   -2.4840 C.2   672  ASN672      0.2627
    106  OD1        5.3330  -16.1680   -2.7690 O.2   672  ASN672     -0.2716
    107  ND2        3.5430  -17.5270   -2.6900 N.am  672  ASN672     -0.0877
@<TRIPOS>BOND
     1    41    42    1
     2    62    61    2
     3    42    43    1
     4    42    45    1
     5    43    44    2
     6    64    63    1
     7    45    46    1
     8    61    60    1
     9    63    60    1
    10    46    47   ar
    11    46    48   ar
    12    60    59    1
    13    47    49   ar
    14    59    55   am
    15    48    50   ar
    16    55    56    2
    17    55    54    1
    18    49    51   ar
    19    54    53    1
    20    54    57    1
    21    50    51   ar
    22    51    52    1
    23    58    57    1
    24    40    39   ar
    25    40    38   ar
    26    39    37   ar
    27    88    87    1
    28    38    36   ar
    29    37    35   ar
    30    87    85   ar
    31    87    86   ar
    32    36    35   ar
    33    35    34    1
    34    85    83   ar
    35    30    31    1
    36    86    84   ar
    37    34    31    1
    38    31    32    1
    39    92    91    2
    40    83    82   ar
    41    84    82   ar
    42    10     9    1
    43    91    90    1
    44    11     9    1
    45    82    81    1
    46    99    97    1
    47    94    93    1
    48    94    95    1
    49    32    33    2
    50     9     8    2
    51    96    97    2
    52    96    95    1
    53    80    79    2
    54    93    90    1
    55    90    89    1
    56    97    98    1
    57    74    72   ar
    58    74    75   ar
    59    72    70   ar
    60    76    75    1
    61    75    73   ar
    62    79    78    1
    63    70    69    1
    64    70    71   ar
    65     8     7    1
    66    81    78    1
    67    73    71   ar
    68    69    66    1
    69     7     6    1
    70    78    77    1
    71    20    18   ar
    72   106   105    2
    73   107   105   am
    74    28    27   ar
    75   105   104    1
    76     6     5    1
    77    65    66    1
    78    29    27   ar
    79    66    67    1
    80   104   101    1
    81    27    26    1
    82    18    19   ar
    83    18    17    1
    84   102   103    2
    85   102   101    1
    86    15    14    2
    87     5     2    1
    88    67    68    2
    89   101   100    1
    90    24    23    2
    91    17    16    1
    92     4     3    2
    93    26    25    1
    94    22    25    1
    95    22    23    1
    96    22    21    1
    97     2     3    1
    98     2     1    1
    99    14    21   am
   100    14    13    1
   101    16    13    1
   102    13    12    1
