@<TRIPOS>MOLECULE
tmp/2ajdA06.pdb
 137 133 0 0 0
SMALL
GASTEIGER

@<TRIPOS>ATOM
      1  N          3.9130   18.0920    7.1030 N.3    87  ARG87      -0.1245
      2  CA         3.6940   19.2520    6.2480 C.3    87  ARG87       0.1563
      3  C          4.4700   20.4910    6.6730 C.2    87  ARG87       0.2260
      4  O          4.8720   21.2940    5.8300 O.2    87  ARG87      -0.2867
      5  CB         2.2060   19.5970    6.1830 C.3    87  ARG87       0.0307
      6  CG         1.9200   20.8580    5.3750 C.3    87  ARG87       0.0489
      7  CD         1.1820   20.5470    4.0890 C.3    87  ARG87       0.2205
      8  NE        -0.2340   20.2890    4.3310 N.pl3  87  ARG87      -0.0865
      9  CZ        -1.0230   19.5980    3.5080 C.cat  87  ARG87       0.5346
     10  NH1       -0.5350   19.0880    2.3780 N.pl3  87  ARG87       0.1354
     11  NH2       -2.3040   19.4070    3.8160 N.pl3  87  ARG87       0.1354
     12  N         -1.2850   19.4070   11.5580 N.3   167  GLU167     -0.1231
     13  CA        -2.0240   19.4380   10.3180 C.3   167  GLU167      0.1699
     14  C         -3.2960   20.2580   10.3580 C.2   167  GLU167      0.2592
     15  O         -3.5480   21.0080    9.4160 O.2   167  GLU167     -0.2718
     16  CB        -2.3520   18.0030    9.8840 C.3   167  GLU167      0.0402
     17  CG        -2.9870   17.8650    8.5180 C.3   167  GLU167      0.1161
     18  CD        -2.1500   18.5030    7.4300 C.2   167  GLU167      0.3649
     19  OE1       -0.9140   18.5430    7.5800 O.co2 167  GLU167     -0.2457
     20  OE2       -2.7240   18.9530    6.4190 O.co2 167  GLU167     -0.2457
     21  N         -4.0700   20.1560   11.4400 N.am  168  GLU168     -0.1979
     22  CA        -5.3540   20.8600   11.5050 C.3   168  GLU168      0.1602
     23  C         -5.6060   21.9820   12.5110 C.2   168  GLU168      0.2287
     24  O         -6.5740   22.7360   12.3410 O.2   168  GLU168     -0.2864
     25  CB        -6.4980   19.8490   11.6970 C.3   168  GLU168      0.0415
     26  CG        -6.4390   18.5890   10.8350 C.3   168  GLU168      0.1163
     27  CD        -6.6080   18.8710    9.3790 C.2   168  GLU168      0.3649
     28  OE1       -6.7320   20.0530    9.0250 O.co2 168  GLU168     -0.2457
     29  OE2       -6.6180   17.9100    8.5900 O.co2 168  GLU168     -0.2457
     30  N        -10.8620   28.2190    9.2410 N.3   319  PHE319     -0.1227
     31  CA       -10.2680   26.9200    9.5120 C.3   319  PHE319      0.1736
     32  C         -9.9600   26.8300   11.0120 C.2   319  PHE319      0.2595
     33  O         -9.4540   25.8140   11.5050 O.2   319  PHE319     -0.2718
     34  CB        -9.0210   26.7190    8.6470 C.3   319  PHE319      0.0547
     35  CG        -9.3280   26.3400    7.2120 C.ar  319  PHE319     -0.0202
     36  CD1       -9.5110   25.0150    6.8510 C.ar  319  PHE319     -0.0042
     37  CD2       -9.4330   27.3070    6.2210 C.ar  319  PHE319     -0.0042
     38  CE1       -9.7900   24.6660    5.5270 C.ar  319  PHE319     -0.0003
     39  CE2       -9.7120   26.9550    4.8940 C.ar  319  PHE319     -0.0003
     40  CZ        -9.8880   25.6380    4.5540 C.ar  319  PHE319     -0.0000
     41  N        -10.3030   27.9110   11.7170 N.am  320  ARG320     -0.1980
     42  CA       -10.1600   28.0630   13.1750 C.3   320  ARG320      0.1597
     43  C        -10.5830   29.4910   13.5120 C.2   320  ARG320      0.2287
     44  O        -10.5630   30.3700   12.6510 O.2   320  ARG320     -0.2864
     45  CB        -8.7120   27.8470   13.6330 C.3   320  ARG320      0.0334
     46  CG        -7.7270   28.9200   13.1850 C.3   320  ARG320      0.0492
     47  CD        -6.4000   28.2920   12.8140 C.3   320  ARG320      0.2205
     48  NE        -6.6280   27.0910   12.0100 N.pl3 320  ARG320     -0.0865
     49  CZ        -5.7550   26.5830   11.1440 C.cat 320  ARG320      0.5346
     50  NH1       -4.5720   27.1650   10.9550 N.pl3 320  ARG320      0.1354
     51  NH2       -6.0710   25.4960   10.4550 N.pl3 320  ARG320      0.1354
     52  N        -11.3420   21.8260   -6.5180 N.3   509  TYR509     -0.1241
     53  CA       -10.9510   21.5920   -5.1300 C.3   509  TYR509      0.1605
     54  C        -12.3050   21.4800   -4.4090 C.2   509  TYR509      0.2264
     55  O        -12.7310   20.3980   -4.0120 O.2   509  TYR509     -0.2867
     56  CB       -10.1570   22.7470   -4.5220 C.3   509  TYR509      0.0534
     57  CG        -9.6650   22.3600   -3.1310 C.ar  509  TYR509     -0.0201
     58  CD1       -8.8370   21.2330   -2.9550 C.ar  509  TYR509     -0.0009
     59  CD2      -10.0510   23.0780   -1.9900 C.ar  509  TYR509     -0.0009
     60  CE1       -8.4050   20.8330   -1.6840 C.ar  509  TYR509      0.0417
     61  CE2       -9.6290   22.6870   -0.7060 C.ar  509  TYR509      0.0417
     62  CZ        -8.7970   21.5610   -0.5570 C.ar  509  TYR509      0.1957
     63  OH        -8.3190   21.1740    0.6920 O.3   509  TYR509     -0.2866
     64  N         -6.8130   15.6260   -3.4730 N.3   592  SER592     -0.1202
     65  CA        -7.2950   15.6620   -2.0940 C.3   592  SER592      0.2020
     66  C         -8.8100   15.8140   -2.1180 C.2   592  SER592      0.2618
     67  O         -9.4940   14.9600   -2.6780 O.2   592  SER592     -0.2717
     68  CB        -6.6290   16.8380   -1.3410 C.3   592  SER592      0.2103
     69  OG        -6.3490   16.5180    0.0140 O.3   592  SER592     -0.2182
     70  N         -9.3340   16.8870   -1.5170 N.am  593  TYR593     -0.1975
     71  CA       -10.7800   17.1130   -1.5240 C.3   593  TYR593      0.1639
     72  C        -11.2680   17.0950   -2.9780 C.2   593  TYR593      0.2290
     73  O        -12.2260   16.3980   -3.3110 O.2   593  TYR593     -0.2864
     74  CB       -11.1190   18.4530   -0.8880 C.3   593  TYR593      0.0560
     75  CG       -12.5500   18.5270   -0.4100 C.ar  593  TYR593     -0.0198
     76  CD1      -13.5980   18.7350   -1.2980 C.ar  593  TYR593     -0.0009
     77  CD2      -12.8560   18.3420    0.9350 C.ar  593  TYR593     -0.0009
     78  CE1      -14.9210   18.7510   -0.8630 C.ar  593  TYR593      0.0417
     79  CE2      -14.1740   18.3600    1.3840 C.ar  593  TYR593      0.0417
     80  CZ       -15.2040   18.5630    0.4790 C.ar  593  TYR593      0.1957
     81  OH       -16.5110   18.5610    0.9350 O.3   593  TYR593     -0.2866
     82  N        -10.2290   11.8580   -0.6140 N.3   618  VAL618     -0.1245
     83  CA       -10.9410   11.3530    0.5490 C.3   618  VAL618      0.1561
     84  C        -12.0330   10.5470   -0.1400 C.2   618  VAL618      0.2260
     85  O        -12.6110   11.0140   -1.1200 O.2   618  VAL618     -0.2867
     86  CB       -11.6200   12.4970    1.3340 C.3   618  VAL618      0.0252
     87  CG1      -12.6250   11.9350    2.3130 C.3   618  VAL618      0.0019
     88  CG2      -10.5800   13.3240    2.0710 C.3   618  VAL618      0.0019
     89  N        -10.7890   10.0020    7.3370 N.3   624  TYR624     -0.1241
     90  CA        -9.9610   11.2010    7.4740 C.3   624  TYR624      0.1605
     91  C         -9.7690   11.6320    8.9480 C.2   624  TYR624      0.2264
     92  O        -10.5300   11.2180    9.8220 O.2   624  TYR624     -0.2867
     93  CB       -10.5290   12.3340    6.6110 C.3   624  TYR624      0.0534
     94  CG        -9.4980   13.3950    6.3350 C.ar  624  TYR624     -0.0201
     95  CD1       -8.2510   13.0400    5.7910 C.ar  624  TYR624     -0.0009
     96  CD2       -9.7110   14.7460    6.7210 C.ar  624  TYR624     -0.0009
     97  CE1       -7.2290   13.9850    5.6430 C.ar  624  TYR624      0.0417
     98  CE2       -8.7020   15.7020    6.5840 C.ar  624  TYR624      0.0417
     99  CZ        -7.4550   15.3100    6.0400 C.ar  624  TYR624      0.1957
    100  OH        -6.4400   16.2250    5.8760 O.3   624  TYR624     -0.2866
    101  N        -10.5010   17.9540   11.2390 N.3   628  TYR628     -0.1241
    102  CA       -11.1190   18.4760   10.0140 C.3   628  TYR628      0.1605
    103  C        -12.5380   17.9320    9.8250 C.2   628  TYR628      0.2264
    104  O        -13.5140   18.6690    9.8490 O.2   628  TYR628     -0.2867
    105  CB       -10.2560   18.1060    8.8120 C.3   628  TYR628      0.0534
    106  CG       -10.7030   18.6880    7.4890 C.ar  628  TYR628     -0.0201
    107  CD1      -11.6480   18.0360    6.7010 C.ar  628  TYR628     -0.0009
    108  CD2      -10.1430   19.8630    6.9950 C.ar  628  TYR628     -0.0009
    109  CE1      -12.0200   18.5290    5.4450 C.ar  628  TYR628      0.0417
    110  CE2      -10.5120   20.3680    5.7550 C.ar  628  TYR628      0.0417
    111  CZ       -11.4530   19.6900    4.9840 C.ar  628  TYR628      0.1957
    112  OH       -11.8410   20.1810    3.7450 O.3   628  TYR628     -0.2866
    113  N         -1.4000   11.8380    5.1410 N.3   672  ASN672     -0.1225
    114  CA        -2.5440   12.7300    5.2620 C.3   672  ASN672      0.1785
    115  C         -3.8450   12.0300    4.8890 C.2   672  ASN672      0.2597
    116  O         -4.6780   11.7870    5.7470 O.2   672  ASN672     -0.2718
    117  CB        -2.3440   13.9540    4.3770 C.3   672  ASN672      0.1169
    118  CG        -3.2470   15.0620    4.7720 C.2   672  ASN672      0.2627
    119  OD1       -4.0240   14.9030    5.7090 O.2   672  ASN672     -0.2716
    120  ND2       -3.1650   16.1900    4.0740 N.am  672  ASN672     -0.0877
    121  N         -4.0250   11.7500    3.6020 N.am  673  VAL673     -0.1980
    122  CA        -5.1820   10.9940    3.1350 C.3   673  VAL673      0.1595
    123  C         -4.5600    9.5980    2.8890 C.2   673  VAL673      0.2287
    124  O         -3.8870    9.3600    1.8910 O.2   673  VAL673     -0.2864
    125  CB        -5.7600   11.5650    1.8140 C.3   673  VAL673      0.0276
    126  CG1       -6.8610   10.6610    1.2820 C.3   673  VAL673      0.0022
    127  CG2       -6.2980   12.9780    2.0440 C.3   673  VAL673      0.0022
    128  N          1.2380   12.7260    0.3620 N.3   702  HIS702     -0.1241
    129  CA         0.1140   13.5110   -0.1420 C.3   702  HIS702      0.1621
    130  C          0.4390   14.5000   -1.2700 C.2   702  HIS702      0.2264
    131  O         -0.4340   14.8750   -2.0540 O.2   702  HIS702     -0.2867
    132  CB        -0.5390   14.2670    0.9950 C.3   702  HIS702      0.0745
    133  CG        -1.9470   14.6690    0.7000 C.ar  702  HIS702      0.0817
    134  ND1       -2.8950   13.7690    0.2690 N.ar  702  HIS702     -0.2268
    135  CD2       -2.5830   15.8560    0.8270 C.ar  702  HIS702      0.1154
    136  CE1       -4.0550   14.3810    0.1480 C.ar  702  HIS702      0.1986
    137  NE2       -3.8940   15.6480    0.4800 N.ar  702  HIS702     -0.2212
@<TRIPOS>BOND
     1    52    53    1
     2    53    56    1
     3    53    54    1
     4    56    57    1
     5    54    55    2
     6    64    65    1
     7    73    72    2
     8    57    58   ar
     9    57    59   ar
    10    72    71    1
    11    58    60   ar
    12    67    66    2
    13    66    65    1
    14    66    70   am
    15    65    68    1
    16   131   130    2
    17    59    61   ar
    18    60    62   ar
    19    71    70    1
    20    71    74    1
    21    68    69    1
    22    76    78   ar
    23    76    75   ar
    24   130   129    1
    25    85    84    2
    26    74    75    1
    27    78    80   ar
    28    61    62   ar
    29    82    83    1
    30    62    63    1
    31    75    77   ar
    32   129   128    1
    33   129   132    1
    34    84    83    1
    35   136   134   ar
    36   136   137   ar
    37   134   133   ar
    38    80    81    1
    39    80    79   ar
    40   137   135   ar
    41    83    86    1
    42   133   135   ar
    43   133   132    1
    44    77    79   ar
    45   126   125    1
    46    86    88    1
    47    86    87    1
    48   125   127    1
    49   125   122    1
    50   124   123    2
    51    10     9    1
    52   123   122    1
    53   122   121    1
    54     9    11    1
    55     9     8    2
    56   121   115   am
    57   112   111    1
    58   120   118   am
    59     7     8    1
    60     7     6    1
    61   117   118    1
    62   117   114    1
    63    40    39   ar
    64    40    38   ar
    65   118   119    2
    66   115   114    1
    67   115   116    2
    68    39    37   ar
    69   111   109   ar
    70   111   110   ar
    71   113   114    1
    72     6     5    1
    73   109   107   ar
    74    38    36   ar
    75    97    95   ar
    76    97    99   ar
    77   110   108   ar
    78    95    94   ar
    79     4     3    2
    80   100    99    1
    81    99    98   ar
    82     5     2    1
    83    37    35   ar
    84     2     3    1
    85     2     1    1
    86    94    93    1
    87    94    96   ar
    88    20    18   ar
    89    98    96   ar
    90    93    90    1
    91   107   106   ar
    92    36    35   ar
    93   108   106   ar
    94    35    34    1
    95    89    90    1
    96    18    19   ar
    97    18    17    1
    98    90    91    1
    99   106   105    1
   100    17    16    1
   101    29    27   ar
   102    34    31    1
   103   105   102    1
   104    91    92    2
   105    28    27   ar
   106    30    31    1
   107    27    26    1
   108    15    14    2
   109    31    32    1
   110   103   104    2
   111   103   102    1
   112    16    13    1
   113   102   101    1
   114    13    14    1
   115    13    12    1
   116    14    21   am
   117    51    49    1
   118    26    25    1
   119    50    49    1
   120    32    33    2
   121    32    41   am
   122    49    48    2
   123    21    22    1
   124    22    25    1
   125    22    23    1
   126    41    42    1
   127    48    47    1
   128    24    23    2
   129    44    43    2
   130    47    46    1
   131    42    43    1
   132    42    45    1
   133    46    45    1
