@<TRIPOS>MOLECULE
tmp/2ajhA00.pdb
 103 99 0 0 0
SMALL
GASTEIGER

@<TRIPOS>ATOM
      1  N         48.0850   -1.0230  -24.2390 N.3    19  TYR19      -0.1227
      2  CA        48.7110   -2.3020  -24.4520 C.3    19  TYR19       0.1736
      3  C         47.9500   -3.3700  -23.6760 C.2    19  TYR19       0.2596
      4  O         47.5390   -3.1340  -22.5320 O.2    19  TYR19      -0.2718
      5  CB        50.1770   -2.2710  -24.0100 C.3    19  TYR19       0.0548
      6  CG        50.8710   -3.5590  -24.3070 C.ar   19  TYR19      -0.0200
      7  CD1       51.0290   -3.9880  -25.6190 C.ar   19  TYR19      -0.0009
      8  CD2       51.3350   -4.3790  -23.2890 C.ar   19  TYR19      -0.0009
      9  CE1       51.6410   -5.1910  -25.9220 C.ar   19  TYR19       0.0417
     10  CE2       51.9630   -5.6040  -23.5820 C.ar   19  TYR19       0.0417
     11  CZ        52.1000   -5.9930  -24.9080 C.ar   19  TYR19       0.1957
     12  OH        52.7040   -7.1790  -25.2450 O.3    19  TYR19      -0.2866
     13  N         47.7430   -4.5320  -24.2860 N.am   20  THR20      -0.1939
     14  CA        47.2420   -5.6840  -23.5280 C.3    20  THR20       0.2028
     15  C         47.8050   -6.9680  -24.0550 C.2    20  THR20       0.2643
     16  O         48.1880   -7.0160  -25.2310 O.2    20  THR20      -0.2714
     17  CB        45.7040   -5.7370  -23.5670 C.3    20  THR20       0.1808
     18  OG1       45.2360   -6.8090  -22.7280 O.3    20  THR20      -0.2208
     19  CG2       45.1790   -6.0560  -25.0170 C.3    20  THR20       0.0379
     20  N         47.8290   -8.0070  -23.2170 N.am   21  THR21      -0.1936
     21  CA        48.2980   -9.3450  -23.6010 C.3    21  THR21       0.2028
     22  C         47.0870  -10.2700  -23.6630 C.2    21  THR21       0.2642
     23  O         47.2270  -11.5050  -23.7900 O.2    21  THR21      -0.2714
     24  CB        49.2810   -9.8950  -22.5600 C.3    21  THR21       0.1808
     25  OG1       48.6450   -9.9690  -21.2580 O.3    21  THR21      -0.2208
     26  CG2       50.4600   -8.9180  -22.3260 C.3    21  THR21       0.0379
     27  N         45.8980   -9.6570  -23.5440 N.am   22  ARG22      -0.1977
     28  CA        44.6480  -10.3680  -23.5920 C.3    22  ARG22       0.1597
     29  C         43.6200   -9.6880  -24.5240 C.2    22  ARG22       0.2287
     30  O         42.5390   -9.2800  -24.0740 O.2    22  ARG22      -0.2864
     31  CB        44.0820  -10.5780  -22.1720 C.3    22  ARG22       0.0334
     32  CG        45.0840  -11.1590  -21.1920 C.3    22  ARG22       0.0492
     33  CD        45.1530  -12.6590  -21.1890 C.3    22  ARG22       0.2205
     34  NE        43.8490  -13.2870  -21.4820 N.pl3  22  ARG22      -0.0865
     35  CZ        43.0760  -13.8830  -20.5700 C.cat  22  ARG22       0.5346
     36  NH1       43.4460  -13.9110  -19.2950 N.pl3  22  ARG22       0.1354
     37  NH2       41.9210  -14.4250  -20.9250 N.pl3  22  ARG22       0.1354
     38  N         39.8230  -10.8580  -24.4670 N.3    25  THR25      -0.1218
     39  CA        38.7440  -10.3270  -23.6060 C.3    25  THR25       0.1862
     40  C         38.2170   -8.9680  -24.0720 C.2    25  THR25       0.2287
     41  O         37.2700   -8.4200  -23.5140 O.2    25  THR25      -0.2866
     42  CB        39.1930  -10.2390  -22.1510 C.3    25  THR25       0.1770
     43  OG1       40.3000   -9.3430  -22.0690 O.3    25  THR25      -0.2211
     44  CG2       39.8030  -11.6020  -21.6700 C.3    25  THR25       0.0375
     45  N         45.2460    1.7960  -20.0560 N.3   108  VAL108     -0.1231
     46  CA        44.9760    0.3750  -19.9800 C.3   108  VAL108      0.1692
     47  C         43.5100    0.1550  -20.2930 C.2   108  VAL108      0.2591
     48  O         42.6650    0.9650  -19.9680 O.2   108  VAL108     -0.2718
     49  CB        45.3220   -0.2020  -18.5770 C.3   108  VAL108      0.0266
     50  CG1       46.7000    0.2820  -18.1130 C.3   108  VAL108      0.0020
     51  CG2       44.2880    0.2130  -17.5320 C.3   108  VAL108      0.0020
     52  N         43.1930   -0.9310  -20.9520 N.am  109  MET109     -0.1979
     53  CA        41.8030   -1.2230  -21.1780 C.3   109  MET109      0.1605
     54  C         41.4270   -2.1290  -20.0650 C.2   109  MET109      0.2287
     55  O         42.2470   -2.9310  -19.6360 O.2   109  MET109     -0.2864
     56  CB        41.6270   -1.8850  -22.5380 C.3   109  MET109      0.0413
     57  CG        42.4700   -3.1200  -22.7280 C.3   109  MET109      0.0598
     58  SD        41.3770   -4.3750  -23.3280 S.3   109  MET109     -0.1393
     59  CE        40.4960   -4.6980  -21.9670 C.3   109  MET109      0.0692
     60  N         38.8070   -4.9970  -18.2880 N.3   111  VAL111     -0.1245
     61  CA        37.7740   -6.0220  -18.4480 C.3   111  VAL111      0.1561
     62  C         37.4620   -6.5780  -17.0560 C.2   111  VAL111      0.2260
     63  O         38.0300   -7.5660  -16.5880 O.2   111  VAL111     -0.2867
     64  CB        38.2160   -7.1420  -19.3940 C.3   111  VAL111      0.0252
     65  CG1       37.1430   -8.1960  -19.5330 C.3   111  VAL111      0.0019
     66  CG2       38.5970   -6.5980  -20.7350 C.3   111  VAL111      0.0019
     67  N         36.9020  -10.3260  -15.8110 N.3   114  HIS114     -0.1226
     68  CA        37.9360  -11.3600  -16.0530 C.3   114  HIS114      0.1752
     69  C         39.3270  -10.9590  -15.5640 C.2   114  HIS114      0.2596
     70  O         40.2960  -11.7340  -15.6980 O.2   114  HIS114     -0.2718
     71  CB        37.9330  -11.8190  -17.5680 C.3   114  HIS114      0.0759
     72  CG        36.5660  -12.2470  -18.0310 C.ar  114  HIS114      0.0818
     73  ND1       35.9790  -13.4210  -17.6010 N.ar  114  HIS114     -0.2268
     74  CD2       35.5910  -11.5650  -18.6850 C.ar  114  HIS114      0.1154
     75  CE1       34.7400  -13.4850  -18.0640 C.ar  114  HIS114      0.1986
     76  NE2       34.4830  -12.3680  -18.7260 N.ar  114  HIS114     -0.2212
     77  N         39.4440   -9.7480  -15.0050 N.am  115  ASP115     -0.1974
     78  CA        40.6740   -9.3200  -14.3310 C.3   115  ASP115      0.1709
     79  C         40.2550   -8.8100  -12.9630 C.2   115  ASP115      0.2293
     80  O         39.3600   -7.9900  -12.8730 O.2   115  ASP115     -0.2864
     81  CB        41.4060   -8.2710  -15.1730 C.3   115  ASP115      0.1436
     82  CG        42.4690   -7.5290  -14.4080 C.2   115  ASP115      0.3671
     83  OD1       43.6530   -7.6750  -14.7800 O.co2 115  ASP115     -0.2456
     84  OD2       42.2340   -6.7570  -13.4380 O.co2 115  ASP115     -0.2456
     85  N         41.8530   -7.0240  -10.3170 N.3   117  ARG117     -0.1231
     86  CA        42.0790   -5.5880  -10.1730 C.3   117  ARG117      0.1694
     87  C         40.9680   -4.7820  -10.8650 C.2   117  ARG117      0.2592
     88  O         40.3470   -3.9550  -10.2320 O.2   117  ARG117     -0.2718
     89  CB        43.4630   -5.2050  -10.7010 C.3   117  ARG117      0.0321
     90  CG        43.8360   -3.7280  -10.5460 C.3   117  ARG117      0.0489
     91  CD        45.3260   -3.4540  -10.7840 C.3   117  ARG117      0.2205
     92  NE        45.6170   -3.2210  -12.2100 N.pl3 117  ARG117     -0.0865
     93  CZ        46.7810   -2.7640  -12.7120 C.cat 117  ARG117      0.5346
     94  NH1       47.8020   -2.4710  -11.9010 N.pl3 117  ARG117      0.1354
     95  NH2       46.9160   -2.5870  -14.0380 N.pl3 117  ARG117      0.1354
     96  N         40.7050   -5.0520  -12.1460 N.am  118  ASP118     -0.1974
     97  CA        39.6130   -4.4110  -12.8810 C.3   118  ASP118      0.1709
     98  C         38.2260   -4.5570  -12.1940 C.2   118  ASP118      0.2293
     99  O         37.4550   -3.6140  -12.1350 O.2   118  ASP118     -0.2864
    100  CB        39.5650   -4.9350  -14.3360 C.3   118  ASP118      0.1436
    101  CG        40.7470   -4.4600  -15.1680 C.2   118  ASP118      0.3671
    102  OD1       41.4040   -3.5060  -14.7290 O.co2 118  ASP118     -0.2456
    103  OD2       41.1160   -4.9700  -16.2600 O.co2 118  ASP118     -0.2456
@<TRIPOS>BOND
     1     9     7   ar
     2     9    11   ar
     3     7     6   ar
     4    12    11    1
     5    16    15    2
     6    19    17    1
     7    11    10   ar
     8    29    30    2
     9    29    28    1
    10    38    39    1
    11     2     1    1
    12     2     5    1
    13     2     3    1
    14     6     5    1
    15     6     8   ar
    16    13     3   am
    17    13    14    1
    18    40    39    1
    19    40    41    2
    20    15    14    1
    21    15    20   am
    22    23    22    2
    23     3     4    2
    24    22    21    1
    25    22    27   am
    26    39    42    1
    27    21    20    1
    28    21    24    1
    29    28    27    1
    30    28    31    1
    31    10     8   ar
    32    17    14    1
    33    17    18    1
    34    58    57    1
    35    58    59    1
    36    57    56    1
    37    24    26    1
    38    24    25    1
    39    56    53    1
    40    31    32    1
    41    42    43    1
    42    42    44    1
    43    34    33    1
    44    34    35    2
    45    32    33    1
    46    53    52    1
    47    53    54    1
    48    52    47   am
    49    37    35    1
    50    66    64    1
    51    35    36    1
    52    47    46    1
    53    47    48    2
    54    54    55    2
    55    45    46    1
    56    46    49    1
    57    65    64    1
    58    64    61    1
    59    76    74   ar
    60    76    75   ar
    61    74    72   ar
    62    49    50    1
    63    49    51    1
    64    61    60    1
    65    61    62    1
    66    75    73   ar
    67    72    73   ar
    68    72    71    1
    69    71    68    1
    70    62    63    2
    71   103   101   ar
    72    68    67    1
    73    68    69    1
    74    70    69    2
    75    69    77   am
    76    81    82    1
    77    81    78    1
    78   101   102   ar
    79   101   100    1
    80    77    78    1
    81    83    82   ar
    82    82    84   ar
    83   100    97    1
    84    78    79    1
    85    95    93    1
    86    79    80    2
    87    97    98    1
    88    97    96    1
    89    93    92    2
    90    93    94    1
    91    92    91    1
    92    98    99    2
    93    96    87   am
    94    87    88    2
    95    87    86    1
    96    91    90    1
    97    89    90    1
    98    89    86    1
    99    85    86    1
