@<TRIPOS>MOLECULE
tmp/2ajiB00.pdb
 103 99 0 0 0
SMALL
GASTEIGER

@<TRIPOS>ATOM
      1  N         30.9740  -31.7980  -19.5040 N.3    19  TYR19      -0.1227
      2  CA        32.4270  -31.6370  -19.5670 C.3    19  TYR19       0.1736
      3  C         32.9490  -31.1070  -18.2250 C.2    19  TYR19       0.2596
      4  O         32.3660  -30.1740  -17.6780 O.2    19  TYR19      -0.2718
      5  CB        32.8440  -30.6930  -20.7090 C.3    19  TYR19       0.0548
      6  CG        34.3420  -30.5020  -20.7530 C.ar   19  TYR19      -0.0200
      7  CD1       35.1590  -31.4680  -21.3220 C.ar   19  TYR19      -0.0009
      8  CD2       34.9460  -29.3940  -20.1610 C.ar   19  TYR19      -0.0009
      9  CE1       36.5420  -31.3390  -21.3160 C.ar   19  TYR19       0.0417
     10  CE2       36.3340  -29.2510  -20.1450 C.ar   19  TYR19       0.0417
     11  CZ        37.1270  -30.2350  -20.7270 C.ar   19  TYR19       0.1957
     12  OH        38.5080  -30.1440  -20.7250 O.3    19  TYR19      -0.2866
     13  N         34.0140  -31.7020  -17.6810 N.am   20  THR20      -0.1939
     14  CA        34.6090  -31.1800  -16.4420 C.3    20  THR20       0.2028
     15  C         36.1120  -31.2880  -16.3320 C.2    20  THR20       0.2643
     16  O         36.7160  -32.2760  -16.7430 O.2    20  THR20      -0.2714
     17  CB        34.0260  -31.8180  -15.1680 C.3    20  THR20       0.1808
     18  OG1       34.6990  -31.2510  -14.0250 O.3    20  THR20      -0.2208
     19  CG2       34.3420  -33.3180  -15.0920 C.3    20  THR20       0.0379
     20  N         36.7050  -30.2780  -15.7130 N.am   21  THR21      -0.1936
     21  CA        38.1470  -30.2590  -15.5120 C.3    21  THR21       0.2028
     22  C         38.4780  -30.7240  -14.1190 C.2    21  THR21       0.2642
     23  O         39.6540  -30.7890  -13.7380 O.2    21  THR21      -0.2714
     24  CB        38.6790  -28.8580  -15.6470 C.3    21  THR21       0.1808
     25  OG1       37.8060  -27.9690  -14.9320 O.3    21  THR21      -0.2208
     26  CG2       38.6420  -28.4240  -17.1040 C.3    21  THR21       0.0379
     27  N         37.4370  -31.0150  -13.3470 N.am   22  ARG22      -0.1977
     28  CA        37.6210  -31.4730  -11.9810 C.3    22  ARG22       0.1597
     29  C         36.9560  -32.8270  -11.7670 C.2    22  ARG22       0.2287
     30  O         36.1010  -32.9740  -10.8930 O.2    22  ARG22      -0.2864
     31  CB        37.0680  -30.4420  -10.9900 C.3    22  ARG22       0.0334
     32  CG        37.8610  -29.1470  -10.8960 C.3    22  ARG22       0.0492
     33  CD        39.3110  -29.3380  -10.4610 C.3    22  ARG22       0.2205
     34  NE        39.4650  -29.9180   -9.1210 N.pl3  22  ARG22      -0.0865
     35  CZ        39.0770  -29.3360   -7.9870 C.cat  22  ARG22       0.5346
     36  NH1       38.4860  -28.1460   -8.0130 N.pl3  22  ARG22       0.1354
     37  NH2       39.2780  -29.9450   -6.8240 N.pl3  22  ARG22       0.1354
     38  N         36.7170  -34.4450   -8.2920 N.3    25  THR25      -0.1218
     39  CA        35.6140  -34.2060   -7.3750 C.3    25  THR25       0.1862
     40  C         34.3520  -35.0380   -7.6750 C.2    25  THR25       0.2287
     41  O         33.3180  -34.8560   -7.0170 O.2    25  THR25      -0.2866
     42  CB        35.2740  -32.7020   -7.3410 C.3    25  THR25       0.1770
     43  OG1       34.6530  -32.3060   -8.5720 O.3    25  THR25      -0.2211
     44  CG2       36.5350  -31.8940   -7.3330 C.3    25  THR25       0.0375
     45  N         25.9620  -29.3560  -17.2760 N.3    98  VAL98      -0.1231
     46  CA        27.1330  -29.3610  -16.4060 C.3    98  VAL98       0.1692
     47  C         26.9260  -30.2800  -15.2170 C.2    98  VAL98       0.2591
     48  O         25.8050  -30.4650  -14.7530 O.2    98  VAL98      -0.2718
     49  CB        27.5210  -27.9400  -15.8980 C.3    98  VAL98       0.0266
     50  CG1       27.7900  -26.9950  -17.0590 C.3    98  VAL98       0.0020
     51  CG2       26.4610  -27.3580  -14.9810 C.3    98  VAL98       0.0020
     52  N         28.0140  -30.8730  -14.7420 N.am   99  MET99      -0.1979
     53  CA        27.9860  -31.6190  -13.4950 C.3    99  MET99       0.1605
     54  C         28.2040  -30.5980  -12.4000 C.2    99  MET99       0.2287
     55  O         29.0740  -29.7450  -12.5010 O.2    99  MET99      -0.2864
     56  CB        29.0820  -32.6870  -13.4650 C.3    99  MET99       0.0413
     57  CG        29.7880  -32.8210  -12.1390 C.3    99  MET99       0.0598
     58  SD        31.3110  -33.6840  -12.3260 S.3    99  MET99      -0.1393
     59  CE        32.4460  -32.6210  -11.4610 C.3    99  MET99       0.0692
     60  N         29.1250  -30.1120   -8.4090 N.3   101  VAL101     -0.1245
     61  CA        29.5860  -30.6550   -7.1410 C.3   101  VAL101      0.1561
     62  C         29.5230  -29.4870   -6.1380 C.2   101  VAL101      0.2260
     63  O         30.5450  -28.8340   -5.8740 O.2   101  VAL101     -0.2867
     64  CB        31.0320  -31.2110   -7.2660 C.3   101  VAL101      0.0252
     65  CG1       31.5530  -31.7240   -5.9370 C.3   101  VAL101      0.0019
     66  CG2       31.0940  -32.3040   -8.2920 C.3   101  VAL101      0.0019
     67  N         32.2070  -28.2550   -3.5880 N.3   104  HIS104     -0.1226
     68  CA        33.5570  -27.7430   -3.8820 C.3   104  HIS104      0.1752
     69  C         33.6420  -26.7580   -5.0640 C.2   104  HIS104      0.2596
     70  O         34.6900  -26.6220   -5.7210 O.2   104  HIS104     -0.2718
     71  CB        34.5380  -28.9180   -4.0370 C.3   104  HIS104      0.0759
     72  CG        34.4290  -29.9250   -2.9330 C.ar  104  HIS104      0.0818
     73  ND1       35.2510  -29.9030   -1.8250 N.ar  104  HIS104     -0.2268
     74  CD2       33.5660  -30.9550   -2.7430 C.ar  104  HIS104      0.1154
     75  CE1       34.9110  -30.8900   -1.0110 C.ar  104  HIS104      0.1986
     76  NE2       33.8890  -31.5390   -1.5430 N.ar  104  HIS104     -0.2212
     77  N         32.5270  -26.0700   -5.2970 N.am  105  ASP105     -0.1974
     78  CA        32.3910  -25.0850   -6.3580 C.3   105  ASP105      0.1709
     79  C         31.3330  -24.0900   -5.9240 C.2   105  ASP105      0.2293
     80  O         30.1430  -24.4370   -5.7710 O.2   105  ASP105     -0.2864
     81  CB        31.9770  -25.7590   -7.6600 C.3   105  ASP105      0.1436
     82  CG        31.5950  -24.7710   -8.7240 C.2   105  ASP105      0.3671
     83  OD1       32.3850  -24.6460   -9.6960 O.co2 105  ASP105     -0.2456
     84  OD2       30.5350  -24.0870   -8.6670 O.co2 105  ASP105     -0.2456
     85  N         29.6800  -21.5450   -7.1440 N.3   107  ARG107     -0.1231
     86  CA        28.4460  -21.3650   -7.9090 C.3   107  ARG107      0.1694
     87  C         27.4900  -22.5320   -7.6390 C.2   107  ARG107      0.2592
     88  O         26.2930  -22.3310   -7.3730 O.2   107  ARG107     -0.2718
     89  CB        28.7030  -21.1990   -9.4130 C.3   107  ARG107      0.0321
     90  CG        27.3940  -20.9480  -10.1860 C.3   107  ARG107      0.0489
     91  CD        27.5160  -20.8790  -11.7110 C.3   107  ARG107      0.2205
     92  NE        28.5010  -21.8170  -12.2560 N.pl3 107  ARG107     -0.0865
     93  CZ        28.4090  -23.1440  -12.2060 C.cat 107  ARG107      0.5346
     94  NH1       27.3670  -23.7330  -11.6290 N.pl3 107  ARG107      0.1354
     95  NH2       29.3760  -23.8860  -12.7320 N.pl3 107  ARG107      0.1354
     96  N         28.0420  -23.7420   -7.6900 N.am  108  ASP108     -0.1974
     97  CA        27.2700  -24.9510   -7.4690 C.3   108  ASP108      0.1709
     98  C         26.5960  -24.9200   -6.0950 C.2   108  ASP108      0.2293
     99  O         25.3740  -25.1130   -5.9900 O.2   108  ASP108     -0.2864
    100  CB        28.1770  -26.1730   -7.6270 C.3   108  ASP108      0.1436
    101  CG        28.5740  -26.4180   -9.0690 C.2   108  ASP108      0.3671
    102  OD1       27.9120  -25.8530   -9.9610 O.co2 108  ASP108     -0.2456
    103  OD2       29.5210  -27.1600   -9.4130 O.co2 108  ASP108     -0.2456
@<TRIPOS>BOND
     1     7     9   ar
     2     7     6   ar
     3     9    11   ar
     4     6     5    1
     5     6     8   ar
     6    11    12    1
     7    11    10   ar
     8     5     2    1
     9     8    10   ar
    10     2     1    1
    11     2     3    1
    12     3    13   am
    13     3     4    2
    14    13    14    1
    15    45    46    1
    16    26    24    1
    17    50    49    1
    18    16    15    2
    19    14    15    1
    20    14    17    1
    21    46    49    1
    22    46    47    1
    23    15    20   am
    24    49    51    1
    25    20    21    1
    26    24    21    1
    27    24    25    1
    28    21    22    1
    29    47    48    2
    30    47    52   am
    31    17    19    1
    32    17    18    1
    33    52    53    1
    34    22    23    2
    35    22    27   am
    36    53    56    1
    37    53    54    1
    38    56    57    1
    39    27    28    1
    40    95    93    1
    41    55    54    2
    42    58    57    1
    43    58    59    1
    44    92    93    2
    45    92    91    1
    46    93    94    1
    47    28    29    1
    48    28    31    1
    49    29    30    2
    50    91    90    1
    51    31    32    1
    52    32    33    1
    53    33    34    1
    54    90    89    1
    55   102   101   ar
    56    83    82   ar
    57    89    86    1
    58   103   101   ar
    59    34    35    2
    60   101   100    1
    61    82    84   ar
    62    82    81    1
    63    43    42    1
    64    60    61    1
    65    38    39    1
    66    66    64    1
    67    36    35    1
    68    35    37    1
    69    86    87    1
    70    86    85    1
    71    96    87   am
    72    96    97    1
    73    40    39    1
    74    40    41    2
    75    81    78    1
    76    87    88    2
    77   100    97    1
    78    97    98    1
    79    39    42    1
    80    42    44    1
    81    64    61    1
    82    64    65    1
    83    61    62    1
    84    78    79    1
    85    78    77    1
    86    62    63    2
    87    98    99    2
    88    79    80    2
    89    70    69    2
    90    77    69   am
    91    69    68    1
    92    71    68    1
    93    71    72    1
    94    68    67    1
    95    72    74   ar
    96    72    73   ar
    97    74    76   ar
    98    73    75   ar
    99    76    75   ar
