@<TRIPOS>MOLECULE
tmp/2ajlA02.pdb
 185 181 0 0 0
SMALL
GASTEIGER

@<TRIPOS>ATOM
      1  N        100.5870  -81.8050  -50.9170 N.3    85  ARG85      -0.1231
      2  CA       101.5500  -82.5100  -50.0820 C.3    85  ARG85       0.1694
      3  C        101.1410  -82.7310  -48.6390 C.2    85  ARG85       0.2592
      4  O        101.6710  -83.6200  -47.9780 O.2    85  ARG85      -0.2718
      5  CB       102.9030  -81.8030  -50.1020 C.3    85  ARG85       0.0321
      6  CG       103.9680  -82.5030  -49.2650 C.3    85  ARG85       0.0489
      7  CD       105.1830  -81.6190  -49.1340 C.3    85  ARG85       0.2205
      8  NE       105.7140  -81.2060  -50.4290 N.pl3  85  ARG85      -0.0865
      9  CZ       106.4920  -81.9600  -51.1960 C.cat  85  ARG85       0.5346
     10  NH1      106.8400  -83.1780  -50.8030 N.pl3  85  ARG85       0.1354
     11  NH2      106.9300  -81.4940  -52.3560 N.pl3  85  ARG85       0.1354
     12  N        100.2170  -81.9280  -48.1320 N.am   86  HIS86      -0.1976
     13  CA        99.7900  -82.1030  -46.7510 C.3    86  HIS86       0.1656
     14  C         98.2790  -82.1010  -46.6350 C.2    86  HIS86       0.2291
     15  O         97.7040  -82.7840  -45.7840 O.2    86  HIS86      -0.2864
     16  CB       100.4020  -81.0110  -45.8780 C.3    86  HIS86       0.0771
     17  CG       101.8980  -80.9980  -45.9090 C.ar   86  HIS86       0.0820
     18  ND1      102.6570  -82.0660  -45.4830 N.ar   86  HIS86      -0.2267
     19  CD2      102.7760  -80.0590  -46.3390 C.ar   86  HIS86       0.1154
     20  CE1      103.9390  -81.7850  -45.6460 C.ar   86  HIS86       0.1986
     21  NE2      104.0380  -80.5730  -46.1620 N.ar   86  HIS86      -0.2212
     22  N        102.4830  -75.6450  -48.7780 N.3   165  GLU165     -0.1231
     23  CA       103.7200  -76.2020  -49.3000 C.3   165  GLU165      0.1699
     24  C        105.0270  -75.4630  -49.0610 C.2   165  GLU165      0.2592
     25  O        106.0350  -76.0890  -48.7730 O.2   165  GLU165     -0.2718
     26  CB       103.5630  -76.4340  -50.8020 C.3   165  GLU165      0.0402
     27  CG       104.8660  -76.7000  -51.5420 C.3   165  GLU165      0.1161
     28  CD       105.4000  -78.1140  -51.3730 C.2   165  GLU165      0.3649
     29  OE1      104.6230  -79.0300  -51.0050 O.co2 165  GLU165     -0.2457
     30  OE2      106.6070  -78.3040  -51.6400 O.co2 165  GLU165     -0.2457
     31  N        105.0280  -74.1440  -49.1740 N.am  166  GLU166     -0.1966
     32  CA       106.2700  -73.4110  -48.9670 C.3   166  GLU166      0.1733
     33  C        106.3330  -72.5600  -47.7140 C.2   166  GLU166      0.2616
     34  O        107.3870  -72.0100  -47.3910 O.2   166  GLU166     -0.2715
     35  CB       106.5790  -72.5470  -50.2000 C.3   166  GLU166      0.0429
     36  CG       106.5490  -73.3230  -51.5160 C.3   166  GLU166      0.1163
     37  CD       107.7220  -74.2750  -51.6880 C.2   166  GLU166      0.3649
     38  OE1      108.2070  -74.8260  -50.6760 O.co2 166  GLU166     -0.2457
     39  OE2      108.1500  -74.4870  -52.8450 O.co2 166  GLU166     -0.2457
     40  N        105.2240  -72.4270  -47.0030 N.am  167  VAL167     -0.1977
     41  CA       105.2810  -71.6150  -45.7990 C.3   167  VAL167      0.1596
     42  C        105.0410  -72.3910  -44.5200 C.2   167  VAL167      0.2287
     43  O        105.9790  -72.6800  -43.7780 O.2   167  VAL167     -0.2864
     44  CB       104.3080  -70.4400  -45.8550 C.3   167  VAL167      0.0276
     45  CG1      104.2010  -69.7950  -44.4740 C.3   167  VAL167      0.0022
     46  CG2      104.8170  -69.4190  -46.8490 C.3   167  VAL167      0.0022
     47  N        104.1730  -75.3900  -44.3580 N.3   169  SER169     -0.1217
     48  CA       104.4170  -76.8100  -44.5950 C.3   169  SER169      0.1889
     49  C        103.3480  -77.6270  -43.8890 C.2   169  SER169      0.2288
     50  O        103.6400  -78.5760  -43.1780 O.2   169  SER169     -0.2866
     51  CB       105.7910  -77.2120  -44.0740 C.3   169  SER169      0.2089
     52  OG       105.9430  -78.6100  -44.1640 O.3   169  SER169     -0.2183
     53  N        114.5240  -71.6040  -44.0820 N.3   317  PHE317     -0.1227
     54  CA       113.4760  -71.7010  -45.0940 C.3   317  PHE317      0.1736
     55  C        112.3900  -70.7160  -44.6760 C.2   317  PHE317      0.2595
     56  O        111.4530  -70.4350  -45.4250 O.2   317  PHE317     -0.2718
     57  CB       112.8660  -73.1050  -45.1190 C.3   317  PHE317      0.0547
     58  CG       113.7090  -74.1400  -45.8080 C.ar  317  PHE317     -0.0202
     59  CD1      113.7600  -74.2050  -47.1870 C.ar  317  PHE317     -0.0042
     60  CD2      114.4230  -75.0700  -45.0750 C.ar  317  PHE317     -0.0042
     61  CE1      114.5090  -75.1870  -47.8210 C.ar  317  PHE317     -0.0003
     62  CE2      115.1710  -76.0510  -45.7050 C.ar  317  PHE317     -0.0003
     63  CZ       115.2130  -76.1100  -47.0800 C.ar  317  PHE317     -0.0000
     64  N        112.5300  -70.2080  -43.4580 N.am  318  ARG318     -0.1980
     65  CA       111.5870  -69.2540  -42.8820 C.3   318  ARG318      0.1597
     66  C        112.0910  -68.8420  -41.5070 C.2   318  ARG318      0.2287
     67  O        112.8500  -69.5720  -40.8740 O.2   318  ARG318     -0.2864
     68  CB       110.2030  -69.9010  -42.7350 C.3   318  ARG318      0.0334
     69  CG       110.2400  -71.2200  -41.9810 C.3   318  ARG318      0.0492
     70  CD       108.9710  -72.0350  -42.1510 C.3   318  ARG318      0.2205
     71  NE       107.9420  -71.7350  -41.1620 N.pl3 318  ARG318     -0.0865
     72  CZ       107.4420  -72.6340  -40.3120 C.cat 318  ARG318      0.5346
     73  NH1      107.8870  -73.8860  -40.3360 N.pl3 318  ARG318      0.1354
     74  NH2      106.4880  -72.2900  -39.4470 N.pl3 318  ARG318      0.1354
     75  N        120.6730  -83.1800  -55.3550 N.3   507  TYR507     -0.1241
     76  CA       119.5130  -82.3580  -55.0580 C.3   507  TYR507      0.1605
     77  C        120.0970  -80.9590  -55.0740 C.2   507  TYR507      0.2264
     78  O        119.5840  -80.0560  -55.7280 O.2   507  TYR507     -0.2867
     79  CB       118.9300  -82.6470  -53.6830 C.3   507  TYR507      0.0534
     80  CG       117.6540  -81.8800  -53.4780 C.ar  507  TYR507     -0.0201
     81  CD1      116.5530  -82.1170  -54.2850 C.ar  507  TYR507     -0.0009
     82  CD2      117.5580  -80.8880  -52.5150 C.ar  507  TYR507     -0.0009
     83  CE1      115.3890  -81.3880  -54.1430 C.ar  507  TYR507      0.0417
     84  CE2      116.3950  -80.1510  -52.3650 C.ar  507  TYR507      0.0417
     85  CZ       115.3100  -80.4040  -53.1840 C.ar  507  TYR507      0.1957
     86  OH       114.1440  -79.6650  -53.0450 O.3   507  TYR507     -0.2866
     87  N        113.2800  -83.0000  -58.8250 N.3   590  SER590     -0.1202
     88  CA       112.9620  -81.6160  -58.4770 C.3   590  SER590      0.2020
     89  C        114.1700  -80.6870  -58.6390 C.2   590  SER590      0.2618
     90  O        114.7210  -80.5760  -59.7330 O.2   590  SER590     -0.2717
     91  CB       112.4250  -81.5570  -57.0480 C.3   590  SER590      0.2103
     92  OG       111.9930  -80.2550  -56.7160 O.3   590  SER590     -0.2182
     93  N        114.5800  -80.0080  -57.5670 N.am  591  TYR591     -0.1975
     94  CA       115.7250  -79.1100  -57.6710 C.3   591  TYR591      0.1639
     95  C        116.8860  -79.9360  -58.1760 C.2   591  TYR591      0.2290
     96  O        117.7050  -79.4590  -58.9570 O.2   591  TYR591     -0.2864
     97  CB       116.0950  -78.4990  -56.3170 C.3   591  TYR591      0.0560
     98  CG       117.0260  -77.3000  -56.4300 C.ar  591  TYR591     -0.0198
     99  CD1      118.3570  -77.4450  -56.8220 C.ar  591  TYR591     -0.0009
    100  CD2      116.5510  -76.0140  -56.2010 C.ar  591  TYR591     -0.0009
    101  CE1      119.1730  -76.3440  -56.9880 C.ar  591  TYR591      0.0417
    102  CE2      117.3600  -74.9110  -56.3660 C.ar  591  TYR591      0.0417
    103  CZ       118.6580  -75.0750  -56.7630 C.ar  591  TYR591      0.1957
    104  OH       119.4050  -73.9480  -57.0020 O.3   591  TYR591     -0.2866
    105  N        112.9530  -78.4110  -62.4260 N.3   616  VAL616     -0.1245
    106  CA       112.5320  -77.0360  -62.6030 C.3   616  VAL616      0.1561
    107  C        113.4000  -76.7280  -63.8240 C.2   616  VAL616      0.2260
    108  O        114.4330  -77.3670  -64.0080 O.2   616  VAL616     -0.2867
    109  CB       112.9660  -76.1400  -61.4400 C.3   616  VAL616      0.0252
    110  CG1      112.9020  -74.6900  -61.8590 C.3   616  VAL616      0.0019
    111  CG2      112.0610  -76.3660  -60.2380 C.3   616  VAL616      0.0019
    112  N        113.1580  -70.7010  -63.3920 N.3   619  TRP619     -0.1241
    113  CA       112.6320  -70.1790  -62.1470 C.3   619  TRP619      0.1605
    114  C        111.3410  -69.3700  -62.2320 C.2   619  TRP619      0.2264
    115  O        110.5990  -69.3000  -61.2580 O.2   619  TRP619     -0.2867
    116  CB       113.7390  -69.4230  -61.4200 C.3   619  TRP619      0.0550
    117  CG       114.7950  -70.3890  -60.9650 C.ar  619  TRP619      0.0003
    118  CD1      116.0750  -70.5170  -61.4500 C.ar  619  TRP619      0.0946
    119  CD2      114.6140  -71.4590  -60.0380 C.ar  619  TRP619      0.0152
    120  NE1      116.6910  -71.6130  -60.8870 N.ar  619  TRP619     -0.2442
    121  CE2      115.8170  -72.2090  -60.0190 C.ar  619  TRP619      0.0810
    122  CE3      113.5510  -71.8620  -59.2240 C.ar  619  TRP619      0.0012
    123  CZ2      115.9780  -73.3330  -59.2220 C.ar  619  TRP619      0.0191
    124  CZ3      113.7120  -72.9830  -58.4280 C.ar  619  TRP619      0.0001
    125  CH2      114.9180  -73.7050  -58.4340 C.ar  619  TRP619      0.0015
    126  N        108.2410  -71.4910  -61.4420 N.3   622  TYR622     -0.1241
    127  CA       108.0270  -72.0110  -60.0930 C.3   622  TYR622      0.1605
    128  C        107.3240  -70.9940  -59.1990 C.2   622  TYR622      0.2264
    129  O        107.3220  -69.8070  -59.4960 O.2   622  TYR622     -0.2867
    130  CB       109.3550  -72.4570  -59.4650 C.3   622  TYR622      0.0534
    131  CG       109.1810  -73.4610  -58.3250 C.ar  622  TYR622     -0.0201
    132  CD1      108.2300  -74.4850  -58.4110 C.ar  622  TYR622     -0.0009
    133  CD2      109.9410  -73.3740  -57.1680 C.ar  622  TYR622     -0.0009
    134  CE1      108.0370  -75.3820  -57.3800 C.ar  622  TYR622      0.0417
    135  CE2      109.7550  -74.2730  -56.1260 C.ar  622  TYR622      0.0417
    136  CZ       108.7990  -75.2730  -56.2370 C.ar  622  TYR622      0.1957
    137  OH       108.5880  -76.1510  -55.1920 O.3   622  TYR622     -0.2866
    138  N        108.8850  -69.7740  -52.6420 N.3   626  TYR626     -0.1241
    139  CA       110.1520  -70.4970  -52.7070 C.3   626  TYR626      0.1605
    140  C        111.2240  -69.8690  -53.5900 C.2   626  TYR626      0.2264
    141  O        112.3770  -69.7240  -53.1730 O.2   626  TYR626     -0.2867
    142  CB       109.9320  -71.9400  -53.1660 C.3   626  TYR626      0.0534
    143  CG       111.2190  -72.7260  -53.2970 C.ar  626  TYR626     -0.0201
    144  CD1      111.9940  -72.6610  -54.4500 C.ar  626  TYR626     -0.0009
    145  CD2      111.6750  -73.5160  -52.2500 C.ar  626  TYR626     -0.0009
    146  CE1      113.1820  -73.3660  -54.5560 C.ar  626  TYR626      0.0417
    147  CE2      112.8590  -74.2210  -52.3460 C.ar  626  TYR626      0.0417
    148  CZ       113.6080  -74.1510  -53.4990 C.ar  626  TYR626      0.1957
    149  OH       114.7570  -74.9150  -53.5920 O.3   626  TYR626     -0.2866
    150  N        112.5390  -66.0120  -52.8190 N.3   629  ARG629     -0.1245
    151  CA       113.3530  -66.1030  -51.6180 C.3   629  ARG629      0.1563
    152  C        114.8390  -66.2550  -51.8720 C.2   629  ARG629      0.2260
    153  O        115.6510  -65.9470  -51.0100 O.2   629  ARG629     -0.2867
    154  CB       112.8680  -67.2730  -50.7660 C.3   629  ARG629      0.0307
    155  CG       113.6650  -67.5040  -49.4900 C.3   629  ARG629      0.0489
    156  CD       112.8060  -68.2350  -48.4750 C.3   629  ARG629      0.2205
    157  NE       112.7260  -69.6670  -48.7270 N.pl3 629  ARG629     -0.0865
    158  CZ       111.6410  -70.4070  -48.5230 C.cat 629  ARG629      0.5346
    159  NH1      110.5210  -69.8520  -48.0690 N.pl3 629  ARG629      0.1354
    160  NH2      111.6910  -71.7110  -48.7540 N.pl3 629  ARG629      0.1354
    161  N        103.0730  -79.0680  -58.1810 N.3   670  ASN670     -0.1225
    162  CA       104.2790  -78.4130  -57.6610 C.3   670  ASN670      0.1785
    163  C        105.1430  -77.9190  -58.8120 C.2   670  ASN670      0.2597
    164  O        105.0760  -76.7620  -59.2010 O.2   670  ASN670     -0.2718
    165  CB       105.0760  -79.4170  -56.8100 C.3   670  ASN670      0.1169
    166  CG       106.0190  -78.7430  -55.8170 C.2   670  ASN670      0.2627
    167  OD1      106.7910  -77.8480  -56.1740 O.2   670  ASN670     -0.2716
    168  ND2      105.9640  -79.1830  -54.5620 N.am  670  ASN670     -0.0877
    169  N        105.9850  -78.7980  -59.3330 N.am  671  VAL671     -0.1980
    170  CA       106.8380  -78.4260  -60.4410 C.3   671  VAL671      0.1595
    171  C        106.0280  -78.8530  -61.6500 C.2   671  VAL671      0.2287
    172  O        105.9990  -80.0200  -62.0280 O.2   671  VAL671     -0.2864
    173  CB       108.1630  -79.1770  -60.4190 C.3   671  VAL671      0.0276
    174  CG1      109.0600  -78.6670  -61.5470 C.3   671  VAL671      0.0022
    175  CG2      108.8290  -79.0030  -59.0590 C.3   671  VAL671      0.0022
    176  N        104.1210  -84.6330  -58.3210 N.3   700  HIS700     -0.1241
    177  CA       105.5420  -84.4280  -58.1040 C.3   700  HIS700      0.1621
    178  C        106.2080  -85.6640  -57.5340 C.2   700  HIS700      0.2264
    179  O        107.3710  -85.9310  -57.8220 O.2   700  HIS700     -0.2867
    180  CB       105.7620  -83.2380  -57.1710 C.3   700  HIS700      0.0745
    181  CG       107.1480  -82.6890  -57.2300 C.ar  700  HIS700      0.0817
    182  ND1      107.7640  -82.3630  -58.4200 N.ar  700  HIS700     -0.2268
    183  CD2      108.0470  -82.4240  -56.2570 C.ar  700  HIS700      0.1154
    184  CE1      108.9820  -81.9200  -58.1760 C.ar  700  HIS700      0.1986
    185  NE2      109.1800  -81.9460  -56.8710 N.ar  700  HIS700     -0.2212
@<TRIPOS>BOND
     1   108   107    2
     2   107   106    1
     3   112   113    1
     4   106   105    1
     5   106   109    1
     6   114   113    1
     7   114   115    2
     8   113   116    1
     9   172   171    2
    10   110   109    1
    11   171   170    1
    12   174   173    1
    13   118   117   ar
    14   118   120   ar
    15   126   127    1
    16   109   111    1
    17   116   117    1
    18   117   119   ar
    19   120   121   ar
    20   170   173    1
    21   170   169    1
    22   173   175    1
    23   127   130    1
    24   127   128    1
    25   119   121   ar
    26   119   122   ar
    27   121   123   ar
    28    90    89    2
    29   129   128    2
    30   130   131    1
    31   169   163   am
    32   122   124   ar
    33   123   125   ar
    34   164   163    2
    35    96    95    2
    36    87    88    1
    37   163   162    1
    38    89    88    1
    39    89    93   am
    40    88    91    1
    41   125   124   ar
    42   182   184   ar
    43   182   181   ar
    44   132   131   ar
    45   132   134   ar
    46   131   133   ar
    47   176   177    1
    48   161   162    1
    49    95    94    1
    50   184   185   ar
    51   177   178    1
    52   177   180    1
    53   179   178    2
    54    94    93    1
    55    94    97    1
    56   162   165    1
    57   134   136   ar
    58   181   180    1
    59   181   183   ar
    60   133   135   ar
    61    91    92    1
    62   104   103    1
    63   101    99   ar
    64   101   103   ar
    65   185   183   ar
    66    99    98   ar
    67   165   166    1
    68   103   102   ar
    69    98    97    1
    70    98   100   ar
    71   102   100   ar
    72   136   135   ar
    73   136   137    1
    74   167   166    2
    75   166   168   am
    76    78    77    2
    77    75    76    1
    78    77    76    1
    79    76    79    1
    80   146   144   ar
    81   146   148   ar
    82   144   143   ar
    83    81    83   ar
    84    81    80   ar
    85    83    85   ar
    86    79    80    1
    87   149   148    1
    88   140   141    2
    89   140   139    1
    90   148   147   ar
    91    80    82   ar
    92   143   142    1
    93   143   145   ar
    94    85    86    1
    95    85    84   ar
    96   142   139    1
    97    39    37   ar
    98   150   151    1
    99   139   138    1
   100    82    84   ar
   101    11     9    1
   102   147   145   ar
   103   152   151    1
   104   152   153    2
   105    37    36    1
   106    37    38   ar
   107    30    28   ar
   108   151   154    1
   109    27    28    1
   110    27    26    1
   111    36    35    1
   112    28    29   ar
   113     9    10    1
   114     9     8    2
   115     1     2    1
   116    26    23    1
   117   154   155    1
   118     8     7    1
   119    35    32    1
   120     5     2    1
   121     5     6    1
   122     2     3    1
   123   155   156    1
   124    23    24    1
   125    23    22    1
   126     6     7    1
   127    31    24   am
   128    31    32    1
   129    24    25    2
   130    32    33    1
   131   160   158    1
   132   157   158    2
   133   157   156    1
   134     3    12   am
   135     3     4    2
   136   158   159    1
   137    12    13    1
   138    61    59   ar
   139    61    63   ar
   140    33    34    2
   141    33    40   am
   142    59    58   ar
   143    63    62   ar
   144    40    41    1
   145    46    44    1
   146    13    14    1
   147    13    16    1
   148    14    15    2
   149    19    21   ar
   150    19    17   ar
   151    21    20   ar
   152    17    16    1
   153    17    18   ar
   154    44    41    1
   155    44    45    1
   156    58    57    1
   157    58    60   ar
   158    41    42    1
   159    62    60   ar
   160    20    18   ar
   161    56    55    2
   162    57    54    1
   163    54    55    1
   164    54    53    1
   165    55    64   am
   166    48    47    1
   167    48    51    1
   168    48    49    1
   169    42    43    2
   170    52    51    1
   171    49    50    2
   172    64    65    1
   173    65    68    1
   174    65    66    1
   175    68    69    1
   176    70    69    1
   177    70    71    1
   178    66    67    2
   179    71    72    2
   180    73    72    1
   181    72    74    1
