@<TRIPOS>MOLECULE
tmp/2ajpA00.pdb
 212 199 0 0 0
SMALL
GASTEIGER

@<TRIPOS>ATOM
      1  N        -22.7680   -7.6120  -50.6840 N.3   109  ASP109     -0.1239
      2  CA       -22.0010   -6.4860  -50.1940 C.3   109  ASP109      0.1674
      3  C        -20.5220   -6.8210  -50.3850 C.2   109  ASP109      0.2266
      4  O        -19.9830   -7.6270  -49.6500 O.2   109  ASP109     -0.2867
      5  CB       -22.3550   -6.1460  -48.7210 C.3   109  ASP109      0.1410
      6  CG       -21.5610   -4.9110  -48.1660 C.2   109  ASP109      0.3668
      7  OD1      -20.8540   -4.2540  -48.9630 O.co2 109  ASP109     -0.2456
      8  OD2      -21.6340   -4.6170  -46.9320 O.co2 109  ASP109     -0.2456
      9  N        -17.3240   -6.4650  -49.7050 N.3   111  VAL111     -0.1245
     10  CA       -16.5020   -5.8260  -48.7100 C.3   111  VAL111      0.1561
     11  C        -15.0370   -6.1330  -49.0170 C.2   111  VAL111      0.2260
     12  O        -14.6180   -7.2960  -49.0360 O.2   111  VAL111     -0.2867
     13  CB       -16.9320   -6.2200  -47.2700 C.3   111  VAL111      0.0252
     14  CG1      -16.1880   -5.3850  -46.2230 C.3   111  VAL111      0.0019
     15  CG2      -18.4290   -6.0420  -47.1050 C.3   111  VAL111      0.0019
     16  N        -12.5490   -3.0580  -48.6350 N.3   113  GLY113     -0.1210
     17  CA       -11.7540   -2.0070  -47.9810 C.3   113  GLY113      0.1956
     18  C        -12.4970   -0.6950  -47.9110 C.2   113  GLY113      0.2611
     19  O        -13.6960   -0.6550  -48.1560 O.2   113  GLY113     -0.2717
     20  N        -11.7810    0.3840  -47.6080 N.am  114  ASP114     -0.1973
     21  CA       -12.3970    1.7070  -47.4290 C.3   114  ASP114      0.1709
     22  C        -11.3580    2.8320  -47.4820 C.2   114  ASP114      0.2293
     23  O        -10.1610    2.5780  -47.3610 O.2   114  ASP114     -0.2864
     24  CB       -13.1400    1.7560  -46.0780 C.3   114  ASP114      0.1436
     25  CG       -14.3970    2.5940  -46.1250 C.2   114  ASP114      0.3671
     26  OD1      -14.5090    3.4890  -47.0000 O.co2 114  ASP114     -0.2456
     27  OD2      -15.2850    2.3590  -45.2750 O.co2 114  ASP114     -0.2456
     28  N         -9.0250   -4.1160  -46.7250 N.3   123  TYR123     -0.1241
     29  CA        -9.3390   -4.7660  -45.4250 C.3   123  TYR123      0.1605
     30  C         -9.1300   -6.2670  -45.5210 C.2   123  TYR123      0.2264
     31  O         -9.2290   -6.9940  -44.5270 O.2   123  TYR123     -0.2867
     32  CB       -10.8360   -4.6030  -45.0860 C.3   123  TYR123      0.0534
     33  CG       -11.3190   -3.2640  -44.5810 C.ar  123  TYR123     -0.0201
     34  CD1      -10.4290   -2.3010  -44.0730 C.ar  123  TYR123     -0.0009
     35  CD2      -12.7010   -2.9760  -44.5670 C.ar  123  TYR123     -0.0009
     36  CE1      -10.9040   -1.0650  -43.5910 C.ar  123  TYR123      0.0417
     37  CE2      -13.1850   -1.7600  -44.0880 C.ar  123  TYR123      0.0417
     38  CZ       -12.2860   -0.8080  -43.5990 C.ar  123  TYR123      0.1957
     39  OH       -12.7690    0.4000  -43.1190 O.3   123  TYR123     -0.2866
     40  N        -23.5420   -3.3030  -53.1930 N.3   144  THR144     -0.1218
     41  CA       -23.6100   -2.1380  -52.3270 C.3   144  THR144      0.1862
     42  C        -22.2250   -1.7360  -51.8820 C.2   144  THR144      0.2287
     43  O        -21.9480   -1.6360  -50.6630 O.2   144  THR144     -0.2866
     44  CB       -24.4830   -2.4280  -51.0740 C.3   144  THR144      0.1770
     45  OG1      -23.9190   -3.5220  -50.3630 O.3   144  THR144     -0.2211
     46  CG2      -25.8980   -2.7920  -51.4770 C.3   144  THR144      0.0375
     47  N        -18.8630    0.5800  -51.1920 N.3   146  ASN146     -0.1240
     48  CA       -18.5600    1.9620  -50.9750 C.3   146  ASN146      0.1653
     49  C        -17.7700    2.4620  -52.2020 C.2   146  ASN146      0.2266
     50  O        -17.6840    1.7510  -53.2160 O.2   146  ASN146     -0.2867
     51  CB       -17.8160    2.1760  -49.6580 C.3   146  ASN146      0.1155
     52  CG       -16.5810    1.3600  -49.5580 C.2   146  ASN146      0.2627
     53  OD1      -15.9500    1.0270  -50.5680 O.2   146  ASN146     -0.2716
     54  ND2      -16.1830    1.0650  -48.3480 N.am  146  ASN146     -0.0877
     55  N        -14.5090    0.3890  -53.0280 N.3   149  GLU149     -0.1245
     56  CA       -14.8290   -0.9060  -53.5780 C.3   149  GLU149      0.1567
     57  C        -15.2970   -0.8000  -55.0160 C.2   149  GLU149      0.2260
     58  O        -15.0430   -1.7060  -55.8210 O.2   149  GLU149     -0.2867
     59  CB       -15.8780   -1.6060  -52.7240 C.3   149  GLU149      0.0388
     60  CG       -15.3250   -2.0600  -51.4180 C.3   149  GLU149      0.1160
     61  CD       -16.3550   -1.9920  -50.2500 C.2   149  GLU149      0.3649
     62  OE1      -17.5470   -1.6200  -50.4850 O.co2 149  GLU149     -0.2457
     63  OE2      -15.9330   -2.3030  -49.1010 O.co2 149  GLU149     -0.2457
     64  N        -22.5290    3.1330  -51.3430 N.3   182  THR182     -0.1203
     65  CA       -23.0640    3.3640  -49.9950 C.3   182  THR182      0.1994
     66  C        -22.3900    4.5100  -49.2270 C.2   182  THR182      0.2618
     67  O        -22.9320    5.0210  -48.2730 O.2   182  THR182     -0.2717
     68  CB       -23.1140    2.0480  -49.1480 C.3   182  THR182      0.1784
     69  OG1      -21.8260    1.4240  -49.0950 O.3   182  THR182     -0.2211
     70  CG2      -24.0850    1.0690  -49.7660 C.3   182  THR182      0.0376
     71  N        -21.2200    4.9230  -49.6660 N.am  183  SER183     -0.1951
     72  CA       -20.6110    6.1280  -49.1450 C.3   183  SER183      0.1924
     73  C        -19.5230    6.6480  -50.1330 C.2   183  SER183      0.2314
     74  O        -18.8980    5.8540  -50.8200 O.2   183  SER183     -0.2863
     75  CB       -20.0490    5.8660  -47.7350 C.3   183  SER183      0.2116
     76  OG       -19.0610    4.8470  -47.7320 O.3   183  SER183     -0.2180
     77  N        -21.5570   13.3000  -47.1230 N.3   195  LEU195     -0.1245
     78  CA       -21.1450   11.9850  -47.5610 C.3   195  LEU195      0.1561
     79  C        -22.1770   11.6550  -48.6230 C.2   195  LEU195      0.2260
     80  O        -23.3780   11.8850  -48.4120 O.2   195  LEU195     -0.2867
     81  CB       -21.2500   11.0610  -46.3560 C.3   195  LEU195      0.0270
     82  CG       -21.1690    9.5600  -46.3700 C.3   195  LEU195      0.0019
     83  CD1      -20.5940    9.1100  -45.0040 C.3   195  LEU195      0.0001
     84  CD2      -22.5360    8.9660  -46.6150 C.3   195  LEU195      0.0001
     85  N        -24.3020    9.3430  -51.3660 N.3   197  VAL197     -0.1245
     86  CA       -24.7740    8.0300  -51.7590 C.3   197  VAL197      0.1561
     87  C        -25.3570    8.1470  -53.1520 C.2   197  VAL197      0.2260
     88  O        -26.1970    9.0170  -53.4030 O.2   197  VAL197     -0.2867
     89  CB       -25.8300    7.4620  -50.7660 C.3   197  VAL197      0.0252
     90  CG1      -26.6050    6.2470  -51.3740 C.3   197  VAL197      0.0019
     91  CG2      -25.1620    7.0590  -49.4970 C.3   197  VAL197      0.0019
     92  N        -25.7220   13.2910  -47.4510 N.3   214  ILE214     -0.1231
     93  CA       -25.9420   12.8860  -46.0760 C.3   214  ILE214      0.1692
     94  C        -24.9700   13.5420  -45.1210 C.2   214  ILE214      0.2592
     95  O        -23.7330   13.4130  -45.2830 O.2   214  ILE214     -0.2718
     96  CB       -25.8500   11.3600  -45.9420 C.3   214  ILE214      0.0266
     97  CG1      -27.0610   10.7120  -46.6190 C.3   214  ILE214      0.0019
     98  CG2      -25.7370   10.9360  -44.4540 C.3   214  ILE214      0.0020
     99  CD1      -26.7180    9.4350  -47.3190 C.3   214  ILE214      0.0001
    100  N        -25.5420   14.2370  -44.1310 N.am  215  ARG215     -0.1966
    101  CA       -24.7870   14.9220  -43.0900 C.3   215  ARG215      0.1729
    102  C        -23.9680   13.8960  -42.2930 C.2   215  ARG215      0.2616
    103  O        -24.5290   13.0290  -41.6410 O.2   215  ARG215     -0.2715
    104  CB       -25.7600   15.7440  -42.1790 C.3   215  ARG215      0.0348
    105  CG       -24.8720   16.1910  -40.9390 C.3   215  ARG215      0.0492
    106  CD       -25.6190   17.2770  -40.2220 C.3   215  ARG215      0.2205
    107  NE       -26.0060   18.3800  -41.0860 N.pl3 215  ARG215     -0.0865
    108  CZ       -27.1760   18.6640  -41.5580 C.cat 215  ARG215      0.5346
    109  NH1      -28.2340   17.8980  -41.3520 N.pl3 215  ARG215      0.1354
    110  NH2      -27.3680   19.7680  -42.3050 N.pl3 215  ARG215      0.1354
    111  N        -22.6430   13.9840  -42.3860 N.am  216  LYS216     -0.1963
    112  CA       -21.7510   13.1600  -41.5750 C.3   216  LYS216      0.1728
    113  C        -21.9280   13.4320  -40.0800 C.2   216  LYS216      0.2616
    114  O        -22.3540   14.5160  -39.6850 O.2   216  LYS216     -0.2715
    115  CB       -20.2990   13.3950  -41.9580 C.3   216  LYS216      0.0311
    116  CG       -19.6800   12.3050  -42.8000 C.3   216  LYS216      0.0038
    117  CD       -18.2530   12.6910  -43.2170 C.3   216  LYS216      0.0206
    118  CE       -17.4550   11.4990  -43.7820 C.3   216  LYS216      0.1093
    119  NZ       -16.9350   10.6760  -42.6730 N.3   216  LYS216     -0.1314
    120  N        -21.6260   12.4250  -39.2650 N.am  217  VAL217     -0.1977
    121  CA       -21.5640   12.5570  -37.8070 C.3   217  VAL217      0.1596
    122  C        -20.1210   12.2070  -37.4210 C.2   217  VAL217      0.2287
    123  O        -19.5000   11.3380  -38.0370 O.2   217  VAL217     -0.2864
    124  CB       -22.6560   11.6710  -37.0910 C.3   217  VAL217      0.0276
    125  CG1      -22.1750   11.1270  -35.7710 C.3   217  VAL217      0.0022
    126  CG2      -23.9290   12.4660  -36.8890 C.3   217  VAL217      0.0022
    127  N        -17.8180   10.3430  -36.0300 N.3   219  ALA219     -0.1231
    128  CA       -17.5860    9.0780  -35.3420 C.3   219  ALA219      0.1694
    129  C        -17.5120    7.9500  -36.3280 C.2   219  ALA219      0.2592
    130  O        -18.1220    7.9980  -37.3900 O.2   219  ALA219     -0.2718
    131  CB       -18.6870    8.8070  -34.3360 C.3   219  ALA219      0.0304
    132  N        -16.7510    6.9330  -35.9630 N.am  220  VAL220     -0.1966
    133  CA       -16.6350    5.7340  -36.7480 C.3   220  VAL220      0.1727
    134  C        -17.5430    4.6690  -36.1520 C.2   220  VAL220      0.2616
    135  O        -17.3280    4.2260  -35.0180 O.2   220  VAL220     -0.2715
    136  CB       -15.1970    5.2340  -36.7690 C.3   220  VAL220      0.0290
    137  CG1      -15.1030    3.9150  -37.5450 C.3   220  VAL220      0.0023
    138  CG2      -14.2830    6.2880  -37.3760 C.3   220  VAL220      0.0023
    139  N        -18.5690    4.2830  -36.9160 N.am  221  PHE221     -0.1974
    140  CA       -19.4630    3.1750  -36.5590 C.3   221  PHE221      0.1639
    141  C        -19.0460    1.8880  -37.2610 C.2   221  PHE221      0.2290
    142  O        -18.4200    1.9280  -38.3180 O.2   221  PHE221     -0.2864
    143  CB       -20.9110    3.5030  -36.9380 C.3   221  PHE221      0.0560
    144  CG       -21.3970    4.7930  -36.3770 C.ar  221  PHE221     -0.0200
    145  CD1      -21.4170    5.9510  -37.1740 C.ar  221  PHE221     -0.0042
    146  CD2      -21.8310    4.8720  -35.0500 C.ar  221  PHE221     -0.0042
    147  CE1      -21.8670    7.1460  -36.6720 C.ar  221  PHE221     -0.0003
    148  CE2      -22.2780    6.0780  -34.5290 C.ar  221  PHE221     -0.0003
    149  CZ       -22.3010    7.2210  -35.3410 C.ar  221  PHE221     -0.0000
    150  N        -22.7220   -0.4650  -39.9720 N.3   224  THR224     -0.1203
    151  CA       -23.6080    0.4110  -40.7570 C.3   224  THR224      0.1994
    152  C        -23.7080    0.0420  -42.2400 C.2   224  THR224      0.2618
    153  O        -24.7960    0.1460  -42.8410 O.2   224  THR224     -0.2717
    154  CB       -23.2740    1.8770  -40.5650 C.3   224  THR224      0.1784
    155  OG1      -21.8560    2.0270  -40.4810 O.3   224  THR224     -0.2211
    156  CG2      -23.9210    2.3860  -39.2540 C.3   224  THR224      0.0376
    157  N        -22.6040   -0.4220  -42.8240 N.am  225  GLY225     -0.1942
    158  CA       -22.6540   -0.9590  -44.1980 C.3   225  GLY225      0.2014
    159  C        -23.5120   -2.2210  -44.2740 C.2   225  GLY225      0.2638
    160  O        -24.3720   -2.3550  -45.1550 O.2   225  GLY225     -0.2714
    161  N        -23.3040   -3.1300  -43.3260 N.am  226  ASP226     -0.1971
    162  CA       -24.1410   -4.3340  -43.2030 C.3   226  ASP226      0.1709
    163  C        -25.6190   -3.9320  -43.0990 C.2   226  ASP226      0.2293
    164  O        -26.4660   -4.3830  -43.9040 O.2   226  ASP226     -0.2864
    165  CB       -23.6670   -5.2070  -42.0020 C.3   226  ASP226      0.1436
    166  CG       -22.1380   -5.4840  -42.0380 C.2   226  ASP226      0.3671
    167  OD1      -21.6150   -5.6560  -43.1520 O.co2 226  ASP226     -0.2456
    168  OD2      -21.4460   -5.5190  -40.9810 O.co2 226  ASP226     -0.2456
    169  N        -27.0260   -1.1680  -44.0290 N.3   228  PHE228     -0.1241
    170  CA       -27.4260   -0.5840  -45.3270 C.3   228  PHE228      0.1605
    171  C        -27.8550   -1.7030  -46.3000 C.2   228  PHE228      0.2264
    172  O        -28.9800   -1.6910  -46.8510 O.2   228  PHE228     -0.2867
    173  CB       -26.2760    0.2420  -45.9420 C.3   228  PHE228      0.0534
    174  CG       -26.7060    1.1490  -47.0710 C.ar  228  PHE228     -0.0203
    175  CD1      -26.4490    2.5240  -47.0140 C.ar  228  PHE228     -0.0042
    176  CD2      -27.3870    0.6460  -48.1840 C.ar  228  PHE228     -0.0042
    177  CE1      -26.8580    3.3760  -48.0400 C.ar  228  PHE228     -0.0003
    178  CE2      -27.7890    1.5010  -49.2220 C.ar  228  PHE228     -0.0003
    179  CZ       -27.5290    2.8700  -49.1390 C.ar  228  PHE228     -0.0000
    180  N        -31.7350    4.8600  -45.9740 N.3   251  VAL251     -0.1245
    181  CA       -30.9150    5.8710  -45.3270 C.3   251  VAL251      0.1561
    182  C        -31.6030    6.5330  -44.1000 C.2   251  VAL251      0.2260
    183  O        -30.9350    6.7690  -43.0830 O.2   251  VAL251     -0.2867
    184  CB       -30.3930    6.8860  -46.3470 C.3   251  VAL251      0.0252
    185  CG1      -29.6280    8.0150  -45.6580 C.3   251  VAL251      0.0019
    186  CG2      -29.4950    6.1610  -47.3420 C.3   251  VAL251      0.0019
    187  N        -31.0920    4.5150  -41.1900 N.3   254  LEU254     -0.1231
    188  CA       -29.7170    4.6770  -40.7480 C.3   254  LEU254      0.1693
    189  C        -29.5270    5.9200  -39.8990 C.2   254  LEU254      0.2592
    190  O        -28.8390    5.8770  -38.8730 O.2   254  LEU254     -0.2718
    191  CB       -28.7560    4.6540  -41.9480 C.3   254  LEU254      0.0284
    192  CG       -28.2530    3.2410  -42.2110 C.3   254  LEU254      0.0019
    193  CD1      -27.6850    3.0970  -43.5980 C.3   254  LEU254      0.0001
    194  CD2      -27.2130    2.8950  -41.1890 C.3   254  LEU254      0.0001
    195  N        -30.1520    7.0190  -40.3250 N.am  255  HIS255     -0.1976
    196  CA       -30.1850    8.2520  -39.5550 C.3   255  HIS255      0.1656
    197  C        -30.7170    7.9930  -38.1350 C.2   255  HIS255      0.2291
    198  O        -30.0020    8.2010  -37.1410 O.2   255  HIS255     -0.2864
    199  CB       -31.0380    9.3120  -40.2560 C.3   255  HIS255      0.0771
    200  CG       -31.1240   10.5980  -39.4930 C.ar  255  HIS255      0.0820
    201  ND1      -32.2170   10.9370  -38.7170 N.ar  255  HIS255     -0.2267
    202  CD2      -30.2260   11.6040  -39.3420 C.ar  255  HIS255      0.1154
    203  CE1      -31.9970   12.1010  -38.1390 C.ar  255  HIS255      0.1986
    204  NE2      -30.7950   12.5260  -38.5000 N.ar  255  HIS255     -0.2212
    205  N        -28.4990    5.8310  -35.9880 N.3   258  LEU258     -0.1245
    206  CA       -27.2030    6.4830  -35.6340 C.3   258  LEU258      0.1561
    207  C        -27.4240    7.6330  -34.6840 C.2   258  LEU258      0.2260
    208  O        -26.7060    7.7730  -33.7010 O.2   258  LEU258     -0.2867
    209  CB       -26.4230    6.9480  -36.8770 C.3   258  LEU258      0.0270
    210  CG       -25.9330    5.8200  -37.7760 C.3   258  LEU258      0.0019
    211  CD1      -25.2690    6.3650  -39.0900 C.3   258  LEU258      0.0001
    212  CD2      -24.9680    4.9420  -36.9820 C.3   258  LEU258      0.0001
@<TRIPOS>BOND
     1    58    57    2
     2    57    56    1
     3    56    55    1
     4    56    59    1
     5    88    87    2
     6    50    49    2
     7    40    41    1
     8    87    86    1
     9    59    60    1
    10    41    42    1
    11    41    44    1
    12    49    48    1
    13    42    43    2
    14    86    85    1
    15    86    89    1
    16    46    44    1
    17    60    61    1
    18    90    89    1
    19    64    65    1
    20    47    48    1
    21    44    45    1
    22    48    51    1
    23    74    73    2
    24    89    91    1
    25     1     2    1
    26    53    52    2
    27    62    61   ar
    28     3     2    1
    29     3     4    2
    30    61    63   ar
    31     2     5    1
    32    73    72    1
    33    65    66    1
    34    65    68    1
    35    70    68    1
    36     9    10    1
    37    71    66   am
    38    71    72    1
    39    51    52    1
    40    52    54   am
    41    66    67    2
    42   178   179   ar
    43   178   176   ar
    44    68    69    1
    45    72    75    1
    46   179   177   ar
    47    12    11    2
    48    11    10    1
    49     7     6   ar
    50     5     6    1
    51    10    13    1
    52    16    17    1
    53    79    80    2
    54    79    78    1
    55   176   174   ar
    56     6     8   ar
    57    19    18    2
    58   177   175   ar
    59    17    18    1
    60    18    20   am
    61    75    76    1
    62    20    21    1
    63    78    77    1
    64    78    81    1
    65    22    21    1
    66    22    23    2
    67    92    93    1
    68    21    24    1
    69   186   184    1
    70    99    97    1
    71    13    15    1
    72    13    14    1
    73   174   175   ar
    74   174   173    1
    75    26    25   ar
    76   172   171    2
    77    28    29    1
    78    97    96    1
    79    84    82    1
    80    82    81    1
    81    82    83    1
    82   184   185    1
    83   184   181    1
    84   171   170    1
    85    25    24    1
    86    25    27   ar
    87    93    96    1
    88    93    94    1
    89   180   181    1
    90   173   170    1
    91    96    98    1
    92    30    29    1
    93    30    31    2
    94    29    32    1
    95   181   182    1
    96   170   169    1
    97    95    94    2
    98   160   159    2
    99    94   100   am
   100    32    33    1
   101    33    35   ar
   102    33    34   ar
   103    35    37   ar
   104   159   158    1
   105   159   161   am
   106   158   157    1
   107   100   101    1
   108   182   183    2
   109    37    38   ar
   110    34    36   ar
   111   164   163    2
   112   118   117    1
   113   118   119    1
   114    38    36   ar
   115    38    39    1
   116   193   192    1
   117   161   162    1
   118   117   116    1
   119   162   163    1
   120   162   165    1
   121   167   166   ar
   122   101   102    1
   123   101   104    1
   124   153   152    2
   125   157   152   am
   126   116   115    1
   127   111   102   am
   128   111   112    1
   129   110   108    1
   130   102   103    2
   131   152   151    1
   132   192   191    1
   133   192   194    1
   134   104   105    1
   135   166   165    1
   136   166   168   ar
   137   115   112    1
   138   191   188    1
   139   112   113    1
   140   108   109    1
   141   108   107    2
   142   187   188    1
   143   107   106    1
   144   105   106    1
   145   151   154    1
   146   151   150    1
   147   188   189    1
   148   154   155    1
   149   154   156    1
   150   195   189   am
   151   195   196    1
   152   199   196    1
   153   199   200    1
   154   113   114    2
   155   113   120   am
   156   189   190    2
   157   196   197    1
   158   200   202   ar
   159   200   201   ar
   160   202   204   ar
   161   120   121    1
   162   211   210    1
   163   201   203   ar
   164   204   203   ar
   165   142   141    2
   166   197   198    2
   167   123   122    2
   168   121   122    1
   169   121   124    1
   170   210   212    1
   171   210   209    1
   172   137   136    1
   173   130   129    2
   174   138   136    1
   175   141   140    1
   176   145   147   ar
   177   145   144   ar
   178   124   126    1
   179   124   125    1
   180   143   140    1
   181   143   144    1
   182   139   140    1
   183   139   134   am
   184   209   206    1
   185   136   133    1
   186   133   134    1
   187   133   132    1
   188   147   149   ar
   189   144   146   ar
   190   129   132   am
   191   129   128    1
   192   134   135    2
   193   127   128    1
   194   205   206    1
   195   206   207    1
   196   128   131    1
   197   149   148   ar
   198   146   148   ar
   199   207   208    2
