@<TRIPOS>MOLECULE
tmp/2ajvB00.pdb
 101 101 0 0 0
SMALL
GASTEIGER

@<TRIPOS>ATOM
      1  N         44.7110   24.5230    5.2140 N.3    34  ALA34      -0.1245
      2  CA        45.1260   25.7850    4.6310 C.3    34  ALA34       0.1562
      3  C         44.7040   26.8950    5.5660 C.2    34  ALA34       0.2260
      4  O         43.5120   27.2190    5.6790 O.2    34  ALA34      -0.2867
      5  CB        44.4660   25.9840    3.2490 C.3    34  ALA34       0.0290
      6  N         39.4540   36.5840   -0.9650 N.3    48  TRP48      -0.1241
      7  CA        40.3780   35.5640   -0.4960 C.3    48  TRP48       0.1605
      8  C         41.7710   36.1340   -0.6970 C.2    48  TRP48       0.2264
      9  O         42.1250   36.5200   -1.8100 O.2    48  TRP48      -0.2867
     10  CB        40.2130   34.3230   -1.3740 C.3    48  TRP48       0.0550
     11  CG        41.1880   33.2570   -1.0360 C.ar   48  TRP48       0.0003
     12  CD1       42.5090   33.2230   -1.3510 C.ar   48  TRP48       0.0946
     13  CD2       40.9220   32.0700   -0.2940 C.ar   48  TRP48       0.0152
     14  NE1       43.0970   32.0850   -0.8490 N.ar   48  TRP48      -0.2442
     15  CE2       42.1350   31.3430   -0.2200 C.ar   48  TRP48       0.0810
     16  CE3       39.7690   31.5200    0.2870 C.ar   48  TRP48       0.0012
     17  CZ2       42.2390   30.1290    0.4400 C.ar   48  TRP48       0.0191
     18  CZ3       39.8720   30.2890    0.9180 C.ar   48  TRP48       0.0001
     19  CH2       41.0990   29.6120    1.0020 C.ar   48  TRP48       0.0015
     20  N         46.8310   31.6690    1.6840 N.3    51  TYR51      -0.1241
     21  CA        46.9510   30.6770    2.7390 C.3    51  TYR51       0.1605
     22  C         48.4160   30.3560    2.9770 C.2    51  TYR51       0.2264
     23  O         49.3290   30.6420    2.1530 O.2    51  TYR51      -0.2867
     24  CB        46.1770   29.3910    2.3770 C.3    51  TYR51       0.0534
     25  CG        46.7240   28.6830    1.1450 C.ar   51  TYR51      -0.0201
     26  CD1       47.8570   27.8650    1.2120 C.ar   51  TYR51      -0.0009
     27  CD2       46.0810   28.8030   -0.0700 C.ar   51  TYR51      -0.0009
     28  CE1       48.3400   27.2330    0.0820 C.ar   51  TYR51       0.0417
     29  CE2       46.5570   28.2150   -1.1960 C.ar   51  TYR51       0.0417
     30  CZ        47.7040   27.4640   -1.1240 C.ar   51  TYR51       0.1957
     31  OH        48.1090   26.8400   -2.2810 O.3    51  TYR51      -0.2866
     32  N         50.3250   26.6160    4.3810 N.3    53  ARG53      -0.1245
     33  CA        50.0930   25.2330    4.6610 C.3    53  ARG53       0.1563
     34  C         51.4500   24.5920    4.8880 C.2    53  ARG53       0.2260
     35  O         52.4610   25.0220    4.3220 O.2    53  ARG53      -0.2867
     36  CB        49.3620   24.5260    3.5420 C.3    53  ARG53       0.0307
     37  CG        50.2150   24.1790    2.3420 C.3    53  ARG53       0.0489
     38  CD        49.3710   23.5950    1.2350 C.3    53  ARG53       0.2205
     39  NE        50.1830   23.3140    0.0520 N.pl3  53  ARG53      -0.0865
     40  CZ        50.9730   22.2560   -0.0960 C.cat  53  ARG53       0.5346
     41  NH1       51.0670   21.3440    0.8640 N.pl3  53  ARG53       0.1354
     42  NH2       51.6710   22.1100   -1.2250 N.pl3  53  ARG53       0.1354
     43  N         50.3110   30.6510   -0.9060 N.3    59  ARG59      -0.1245
     44  CA        49.8750   31.1050   -2.2010 C.3    59  ARG59       0.1563
     45  C         48.9490   32.2730   -1.9620 C.2    59  ARG59       0.2260
     46  O         48.2470   32.3060   -0.9800 O.2    59  ARG59      -0.2867
     47  CB        49.1450   30.0020   -2.9610 C.3    59  ARG59       0.0307
     48  CG        48.9690   30.3240   -4.4200 C.3    59  ARG59       0.0489
     49  CD        48.3690   29.1920   -5.1920 C.3    59  ARG59       0.2205
     50  NE        48.4420   29.4950   -6.6130 N.pl3  59  ARG59      -0.0865
     51  CZ        47.9700   28.6690   -7.5270 C.cat  59  ARG59       0.5346
     52  NH1       47.3890   27.5380   -7.1350 N.pl3  59  ARG59       0.1354
     53  NH2       48.0610   28.9810   -8.8110 N.pl3  59  ARG59       0.1354
     54  N         40.7690   26.3160    6.1770 N.3    99  TYR99      -0.1227
     55  CA        40.1020   25.5600    5.1080 C.3    99  TYR99       0.1736
     56  C         40.6830   24.1660    4.9660 C.2    99  TYR99       0.2595
     57  O         41.8990   23.9680    5.1100 O.2    99  TYR99      -0.2718
     58  CB        40.2390   26.2860    3.7580 C.3    99  TYR99       0.0548
     59  CG        39.1970   27.3560    3.5040 C.ar   99  TYR99      -0.0200
     60  CD1       39.3310   28.6520    4.0470 C.ar   99  TYR99      -0.0009
     61  CD2       38.0850   27.0790    2.7170 C.ar   99  TYR99      -0.0009
     62  CE1       38.3810   29.6580    3.7750 C.ar   99  TYR99       0.0417
     63  CE2       37.1260   28.0610    2.4580 C.ar   99  TYR99       0.0417
     64  CZ        37.2730   29.3380    2.9800 C.ar   99  TYR99       0.1957
     65  OH        36.3330   30.3040    2.7140 O.3    99  TYR99      -0.2866
     66  N         39.8230   23.2050    4.6410 N.am  100  ASP100     -0.1960
     67  CA        40.3170   21.8710    4.2730 C.3   100  ASP100      0.1840
     68  C         40.1600   21.6320    2.7840 C.2   100  ASP100      0.2622
     69  O         39.7300   22.5010    2.0410 O.2   100  ASP100     -0.2715
     70  CB        39.6920   20.7630    5.1300 C.3   100  ASP100      0.1450
     71  CG        38.2500   20.4610    4.8030 C.2   100  ASP100      0.3671
     72  OD1       37.7100   20.9030    3.7790 O.co2 100  ASP100     -0.2456
     73  OD2       37.5800   19.7190    5.5660 O.co2 100  ASP100     -0.2456
     74  N         40.5390   20.4370    2.3510 N.am  101  TYR101     -0.1960
     75  CA        40.5810   20.1560    0.9260 C.3   101  TYR101      0.1771
     76  C         39.2110   20.2870    0.2740 C.2   101  TYR101      0.2620
     77  O         39.1150   20.6010   -0.9030 O.2   101  TYR101     -0.2715
     78  CB        41.0980   18.7270    0.7580 C.3   101  TYR101      0.0574
     79  CG        41.1330   18.1780   -0.6530 C.ar  101  TYR101     -0.0198
     80  CD1       42.2380   18.3780   -1.4870 C.ar  101  TYR101     -0.0009
     81  CD2       40.0710   17.4330   -1.1360 C.ar  101  TYR101     -0.0009
     82  CE1       42.2660   17.8310   -2.7830 C.ar  101  TYR101      0.0417
     83  CE2       40.0840   16.8840   -2.4070 C.ar  101  TYR101      0.0417
     84  CZ        41.1790   17.0970   -3.2390 C.ar  101  TYR101      0.1957
     85  OH        41.2050   16.5610   -4.5240 O.3   101  TYR101     -0.2866
     86  N         38.1550   20.0320    1.0410 N.am  102  TYR102     -0.1960
     87  CA        36.7920   20.0820    0.4830 C.3   102  TYR102      0.1771
     88  C         36.1250   21.4410    0.5820 C.2   102  TYR102      0.2620
     89  O         34.9790   21.5800    0.1890 O.2   102  TYR102     -0.2715
     90  CB        35.9250   19.0220    1.1600 C.3   102  TYR102      0.0574
     91  CG        36.4980   17.6440    0.9380 C.ar  102  TYR102     -0.0198
     92  CD1       36.4760   17.0700   -0.3280 C.ar  102  TYR102     -0.0009
     93  CD2       37.1380   16.9590    1.9790 C.ar  102  TYR102     -0.0009
     94  CE1       37.0260   15.7970   -0.5510 C.ar  102  TYR102      0.0417
     95  CE2       37.6940   15.7000    1.7750 C.ar  102  TYR102      0.0417
     96  CZ        37.6320   15.1310    0.5060 C.ar  102  TYR102      0.1957
     97  OH        38.1920   13.8820    0.2830 O.3   102  TYR102     -0.2866
     98  N         36.8420   22.4470    1.0660 N.am  103  GLY103     -0.1954
     99  CA        36.2430   23.7690    1.2250 C.3   103  GLY103      0.1869
    100  C         35.6090   24.0170    2.5750 C.2   103  GLY103      0.2309
    101  O         35.0310   25.0750    2.8110 O.2   103  GLY103     -0.2863
@<TRIPOS>BOND
     1    53    51    1
     2    51    52    1
     3    51    50    2
     4    50    49    1
     5    49    48    1
     6    85    84    1
     7    48    47    1
     8    84    82   ar
     9    84    83   ar
    10    47    44    1
    11    82    80   ar
    12    83    81   ar
    13    31    30    1
    14    44    45    1
    15    44    43    1
    16    45    46    2
    17     9     8    2
    18    80    79   ar
    19    10    11    1
    20    10     7    1
    21    12    11   ar
    22    12    14   ar
    23    42    40    1
    24    29    30   ar
    25    29    27   ar
    26    81    79   ar
    27    30    28   ar
    28    11    13   ar
    29     6     7    1
    30    77    76    2
    31    14    15   ar
    32     8     7    1
    33    79    78    1
    34    94    92   ar
    35    94    96   ar
    36    92    91   ar
    37    13    15   ar
    38    13    16   ar
    39    15    17   ar
    40    40    39    2
    41    40    41    1
    42    27    25   ar
    43    39    38    1
    44    28    26   ar
    45    89    88    2
    46    76    75    1
    47    76    86   am
    48    97    96    1
    49    16    18   ar
    50    17    19   ar
    51    87    88    1
    52    87    86    1
    53    87    90    1
    54    96    95   ar
    55    88    98   am
    56    78    75    1
    57    18    19   ar
    58    75    74    1
    59    91    90    1
    60    91    93   ar
    61    98    99    1
    62    25    26   ar
    63    25    24    1
    64    99   100    1
    65    38    37    1
    66    20    21    1
    67    95    93   ar
    68    69    68    2
    69    23    22    2
    70    37    36    1
    71    74    68   am
    72    24    21    1
    73    63    61   ar
    74    63    64   ar
    75   100   101    2
    76    65    64    1
    77    61    59   ar
    78    21    22    1
    79    68    67    1
    80    64    62   ar
    81     5     2    1
    82    59    58    1
    83    59    60   ar
    84    36    33    1
    85    58    55    1
    86    62    60   ar
    87    72    71   ar
    88    67    66    1
    89    67    70    1
    90    35    34    2
    91    32    33    1
    92     2     1    1
    93     2     3    1
    94    66    56   am
    95    33    34    1
    96    71    70    1
    97    71    73   ar
    98    56    55    1
    99    56    57    2
   100    55    54    1
   101     3     4    2
