@<TRIPOS>MOLECULE
tmp/2ajxB00.pdb
 95 93 0 0 0
SMALL
GASTEIGER

@<TRIPOS>ATOM
      1  N          1.2760   -0.3880  -20.0370 N.3    32  ASN32      -0.1240
      2  CA         2.1770   -1.5290  -19.9140 C.3    32  ASN32       0.1653
      3  C          3.0600   -1.5280  -18.6680 C.2    32  ASN32       0.2266
      4  O          4.2840   -1.6140  -18.7510 O.2    32  ASN32      -0.2867
      5  CB         3.0580   -1.6480  -21.1700 C.3    32  ASN32       0.1155
      6  CG         3.7140   -3.0090  -21.2860 C.2    32  ASN32       0.2627
      7  OD1        3.1760   -3.9960  -20.7990 O.2    32  ASN32      -0.2716
      8  ND2        4.8680   -3.0710  -21.9360 N.am   32  ASN32      -0.0877
      9  N          3.3440   -3.2090  -14.5580 N.3    34  ALA34      -0.1245
     10  CA         2.8430   -4.3130  -13.7550 C.3    34  ALA34       0.1562
     11  C          2.0980   -3.7320  -12.5630 C.2    34  ALA34       0.2260
     12  O          2.7150   -3.2700  -11.6080 O.2    34  ALA34      -0.2867
     13  CB         3.9910   -5.1950  -13.2760 C.3    34  ALA34       0.0290
     14  N          0.5560   -9.6610  -10.6460 N.3    51  TYR51      -0.1241
     15  CA         0.1700   -8.4040  -11.2760 C.3    51  TYR51       0.1605
     16  C         -0.7250   -8.5760  -12.4980 C.2    51  TYR51       0.2264
     17  O         -0.9090   -9.6860  -13.0000 O.2    51  TYR51      -0.2867
     18  CB         1.4310   -7.6500  -11.7130 C.3    51  TYR51       0.0534
     19  CG         2.1810   -8.2460  -12.9070 C.ar   51  TYR51      -0.0201
     20  CD1        1.5860   -8.3310  -14.1720 C.ar   51  TYR51      -0.0009
     21  CD2        3.5160   -8.6490  -12.7880 C.ar   51  TYR51      -0.0009
     22  CE1        2.2940   -8.7860  -15.2750 C.ar   51  TYR51       0.0417
     23  CE2        4.2320   -9.1030  -13.8880 C.ar   51  TYR51       0.0417
     24  CZ         3.6160   -9.1640  -15.1280 C.ar   51  TYR51       0.1957
     25  OH         4.3080   -9.5560  -16.2380 O.3    51  TYR51      -0.2866
     26  N         -1.2080   -6.4930  -16.2290 N.3    53  ARG53      -0.1245
     27  CA        -0.4790   -5.5180  -17.0320 C.3    53  ARG53       0.1563
     28  C         -1.0730   -5.4210  -18.4310 C.2    53  ARG53       0.2260
     29  O         -1.4230   -6.4440  -19.0430 O.2    53  ARG53      -0.2867
     30  CB         1.0030   -5.9370  -17.0990 C.3    53  ARG53       0.0307
     31  CG         1.8730   -5.1720  -18.1010 C.3    53  ARG53       0.0489
     32  CD         3.3670   -5.4100  -17.8430 C.3    53  ARG53       0.2205
     33  NE         3.7760   -6.8070  -17.9800 N.pl3  53  ARG53      -0.0865
     34  CZ         4.1160   -7.3920  -19.1280 C.cat  53  ARG53       0.5346
     35  NH1        4.1040   -6.7050  -20.2640 N.pl3  53  ARG53       0.1354
     36  NH2        4.4810   -8.6680  -19.1380 N.pl3  53  ARG53       0.1354
     37  N          0.2400  -12.3090  -14.0640 N.3    59  ARG59      -0.1245
     38  CA         1.2880  -13.2180  -13.6150 C.3    59  ARG59       0.1563
     39  C          1.0570  -13.3530  -12.1090 C.2    59  ARG59       0.2260
     40  O          0.8400  -12.3570  -11.4230 O.2    59  ARG59      -0.2867
     41  CB         2.6690  -12.6190  -13.9110 C.3    59  ARG59       0.0307
     42  CG         3.0020  -12.4630  -15.4070 C.3    59  ARG59       0.0489
     43  CD         3.3850  -13.7980  -16.0410 C.3    59  ARG59       0.2205
     44  NE         3.8850  -13.6390  -17.4070 N.pl3  59  ARG59      -0.0865
     45  CZ         3.1190  -13.6270  -18.4950 C.cat  59  ARG59       0.5346
     46  NH1        1.8050  -13.7680  -18.3920 N.pl3  59  ARG59       0.1354
     47  NH2        3.6710  -13.4750  -19.6910 N.pl3  59  ARG59       0.1354
     48  N          4.9260   -1.4250  -10.9130 N.3    99  TYR99      -0.1227
     49  CA         6.2810   -1.8200  -11.2670 C.3    99  TYR99       0.1736
     50  C          6.4760   -1.6950  -12.7760 C.2    99  TYR99       0.2595
     51  O          5.5830   -2.0490  -13.5430 O.2    99  TYR99      -0.2718
     52  CB         6.5240   -3.2850  -10.9140 C.3    99  TYR99       0.0548
     53  CG         6.9660   -3.5840   -9.5080 C.ar   99  TYR99      -0.0200
     54  CD1        6.0520   -3.6290   -8.4570 C.ar   99  TYR99      -0.0009
     55  CD2        8.2990   -3.8690   -9.2350 C.ar   99  TYR99      -0.0009
     56  CE1        6.4530   -3.9550   -7.1720 C.ar   99  TYR99       0.0417
     57  CE2        8.7110   -4.1940   -7.9560 C.ar   99  TYR99       0.0417
     58  CZ         7.7870   -4.2400   -6.9310 C.ar   99  TYR99       0.1957
     59  OH         8.1960   -4.5980   -5.6720 O.3    99  TYR99      -0.2866
     60  N          7.6390   -1.2110  -13.2030 N.am  100  ASP100     -0.1960
     61  CA         7.9100   -1.1460  -14.6250 C.3   100  ASP100      0.1840
     62  C          8.8530   -2.3000  -14.9780 C.2   100  ASP100      0.2622
     63  O          9.2640   -3.0590  -14.1040 O.2   100  ASP100     -0.2715
     64  CB         8.4910    0.2210  -15.0510 C.3   100  ASP100      0.1450
     65  CG         9.8740    0.5090  -14.4830 C.2   100  ASP100      0.3671
     66  OD1       10.6160   -0.4290  -14.1300 O.co2 100  ASP100     -0.2456
     67  OD2       10.2270    1.7110  -14.4200 O.co2 100  ASP100     -0.2456
     68  N          9.1530   -2.4400  -16.2640 N.am  101  TYR101     -0.1960
     69  CA        10.0090   -3.5010  -16.7940 C.3   101  TYR101      0.1771
     70  C         11.3400   -3.6740  -16.0620 C.2   101  TYR101      0.2620
     71  O         11.8200   -4.8070  -15.8670 O.2   101  TYR101     -0.2715
     72  CB        10.2550   -3.2140  -18.2840 C.3   101  TYR101      0.0574
     73  CG        11.1220   -4.2020  -19.0400 C.ar  101  TYR101     -0.0198
     74  CD1       10.5680   -5.3330  -19.6450 C.ar  101  TYR101     -0.0009
     75  CD2       12.4870   -3.9660  -19.2120 C.ar  101  TYR101     -0.0009
     76  CE1       11.3540   -6.1990  -20.4130 C.ar  101  TYR101      0.0417
     77  CE2       13.2800   -4.8210  -19.9700 C.ar  101  TYR101      0.0417
     78  CZ        12.7100   -5.9320  -20.5710 C.ar  101  TYR101      0.1957
     79  OH        13.4930   -6.7730  -21.3230 O.3   101  TYR101     -0.2866
     80  N         11.9180   -2.5540  -15.6370 N.am  102  TYR102     -0.1960
     81  CA        13.2100   -2.5610  -14.9750 C.3   102  TYR102      0.1771
     82  C         13.1600   -2.7280  -13.4580 C.2   102  TYR102      0.2620
     83  O         14.1850   -2.6290  -12.7940 O.2   102  TYR102     -0.2715
     84  CB        13.9750   -1.2930  -15.3610 C.3   102  TYR102      0.0574
     85  CG        14.3020   -1.2570  -16.8460 C.ar  102  TYR102     -0.0198
     86  CD1       15.2960   -2.0770  -17.3710 C.ar  102  TYR102     -0.0009
     87  CD2       13.5820   -0.4480  -17.7270 C.ar  102  TYR102     -0.0009
     88  CE1       15.5720   -2.1000  -18.7450 C.ar  102  TYR102      0.0417
     89  CE2       13.8450   -0.4640  -19.1010 C.ar  102  TYR102      0.0417
     90  CZ        14.8420   -1.2940  -19.6000 C.ar  102  TYR102      0.1957
     91  OH        15.1070   -1.3360  -20.9530 O.3   102  TYR102     -0.2866
     92  N         11.9660   -2.9840  -12.9270 N.am  103  GLY103     -0.1954
     93  CA        11.8110   -3.1930  -11.4990 C.3   103  GLY103      0.1869
     94  C         11.6260   -1.9410  -10.6670 C.2   103  GLY103      0.2309
     95  O         11.5090   -2.0150   -9.4410 O.2   103  GLY103     -0.2863
@<TRIPOS>BOND
     1     8     6   am
     2    79    78    1
     3     6     5    1
     4     6     7    2
     5     5     2    1
     6    91    90    1
     7    78    76   ar
     8    78    77   ar
     9    76    74   ar
    10    35    34    1
    11     1     2    1
    12    77    75   ar
    13     2     3    1
    14    47    45    1
    15    74    73   ar
    16    90    89   ar
    17    90    88   ar
    18    75    73   ar
    19    36    34    1
    20    34    33    2
    21    89    87   ar
    22    29    28    2
    23    73    72    1
    24     4     3    2
    25    88    86   ar
    26    45    46    1
    27    45    44    2
    28    28    27    1
    29    72    69    1
    30    31    32    1
    31    31    30    1
    32    33    32    1
    33    87    85   ar
    34    44    43    1
    35    86    85   ar
    36    30    27    1
    37    27    26    1
    38    85    84    1
    39    69    68    1
    40    69    70    1
    41    68    62   am
    42    25    24    1
    43    70    71    2
    44    70    80   am
    45    43    42    1
    46    80    81    1
    47    42    41    1
    48    84    81    1
    49    22    24   ar
    50    22    20   ar
    51    24    23   ar
    52    64    61    1
    53    64    65    1
    54    62    61    1
    55    62    63    2
    56    81    82    1
    57    61    60    1
    58     9    10    1
    59    65    67   ar
    60    65    66   ar
    61    20    19   ar
    62    37    38    1
    63    41    38    1
    64    23    21   ar
    65    10    13    1
    66    10    11    1
    67    38    39    1
    68    51    50    2
    69    82    92   am
    70    82    83    2
    71    60    50   am
    72    17    16    2
    73    92    93    1
    74    19    21   ar
    75    19    18    1
    76    50    49    1
    77    11    12    2
    78    16    15    1
    79    39    40    2
    80    18    15    1
    81    93    94    1
    82    15    14    1
    83    49    52    1
    84    49    48    1
    85    52    53    1
    86    94    95    2
    87    53    55   ar
    88    53    54   ar
    89    55    57   ar
    90    54    56   ar
    91    57    58   ar
    92    56    58   ar
    93    58    59    1
