@<TRIPOS>MOLECULE
tmp/2ak3A00.pdb
 124 116 0 0 0
SMALL
GASTEIGER

@<TRIPOS>ATOM
      1  N         -0.7350   35.6440   53.9370 N.3    19  LYS19      -0.1245
      2  CA         0.6510   36.0180   53.9330 C.3    19  LYS19       0.1561
      3  C          1.5500   34.7970   53.9610 C.2    19  LYS19       0.2260
      4  O          2.5450   34.7580   53.2410 O.2    19  LYS19      -0.2867
      5  CB         0.9060   36.9170   55.1370 C.3    19  LYS19       0.0271
      6  CG         2.3890   37.1980   55.3280 C.3    19  LYS19       0.0035
      7  CD         2.6080   38.3300   56.2810 C.3    19  LYS19       0.0206
      8  CE         2.2160   37.9560   57.6830 C.3    19  LYS19       0.1093
      9  NZ         3.1880   37.0840   58.3070 N.3    19  LYS19      -0.1314
     10  N         11.6060   34.7020   59.4750 N.3    36  SER36      -0.1202
     11  CA        10.3030   34.8770   60.0790 C.3    36  SER36       0.2020
     12  C         10.5210   35.1150   61.5510 C.2    36  SER36       0.2619
     13  O         11.0760   34.2530   62.2130 O.2    36  SER36      -0.2717
     14  CB         9.4720   33.6190   59.8780 C.3    36  SER36       0.2103
     15  OG         8.3850   33.5000   60.7980 O.3    36  SER36      -0.2182
     16  N         10.0530   36.1890   62.1370 N.am   37  SER37      -0.1937
     17  CA        10.3270   36.4680   63.5210 C.3    37  SER37       0.2055
     18  C          9.5440   35.4800   64.4100 C.2    37  SER37       0.2643
     19  O         10.1040   35.0400   65.4090 O.2    37  SER37      -0.2714
     20  CB         9.9320   37.8900   63.7480 C.3    37  SER37       0.2130
     21  OG         8.5950   38.0810   63.3090 O.3    37  SER37      -0.2179
     22  N          8.3090   35.0560   64.0800 N.am   38  GLY38      -0.1954
     23  CA         7.5960   34.0160   64.7990 C.3    38  GLY38       0.1869
     24  C          8.4390   32.7450   64.7820 C.2    38  GLY38       0.2309
     25  O          8.6080   32.1050   65.8120 O.2    38  GLY38      -0.2863
     26  N         11.3360   32.9960   67.3360 N.3    41  LEU41      -0.1231
     27  CA        10.8130   32.9420   68.6810 C.3    41  LEU41       0.1693
     28  C         10.4850   31.4900   68.9770 C.2    41  LEU41       0.2591
     29  O         10.8820   30.9980   70.0300 O.2    41  LEU41      -0.2718
     30  CB         9.5760   33.8250   68.7850 C.3    41  LEU41       0.0284
     31  CG         9.8230   35.3110   68.5830 C.3    41  LEU41       0.0019
     32  CD1        8.5670   36.1190   68.6810 C.3    41  LEU41       0.0001
     33  CD2       10.7260   35.7730   69.6870 C.3    41  LEU41       0.0001
     34  N          9.8610   30.7340   68.0730 N.am   42  ARG42      -0.1980
     35  CA         9.6060   29.3250   68.2990 C.3    42  ARG42       0.1597
     36  C         10.8860   28.5520   68.5310 C.2    42  ARG42       0.2287
     37  O         10.9640   27.7610   69.4640 O.2    42  ARG42      -0.2864
     38  CB         8.8740   28.6850   67.1140 C.3    42  ARG42       0.0334
     39  CG         7.3760   28.9850   67.1280 C.3    42  ARG42       0.0492
     40  CD         6.6400   28.3310   65.9350 C.3    42  ARG42       0.2205
     41  NE         5.5930   29.2410   65.4530 N.pl3  42  ARG42      -0.0865
     42  CZ         5.7230   29.9150   64.2980 C.cat  42  ARG42       0.5346
     43  NH1        6.7570   29.7080   63.4980 N.pl3  42  ARG42       0.1354
     44  NH2        4.8080   30.7940   63.8960 N.pl3  42  ARG42       0.1354
     45  N          3.8100   35.6580   74.6410 N.3    59  ILE59      -0.1245
     46  CA         2.9990   34.9860   73.6680 C.3    59  ILE59       0.1561
     47  C          1.8430   34.3370   74.3800 C.2    59  ILE59       0.2260
     48  O          0.7460   34.4770   73.8710 O.2    59  ILE59      -0.2867
     49  CB         3.8450   33.9620   72.9250 C.3    59  ILE59       0.0252
     50  CG1        4.7150   34.7700   71.9720 C.3    59  ILE59       0.0019
     51  CG2        3.0380   32.9690   72.0880 C.3    59  ILE59       0.0019
     52  CD1        5.6950   33.8830   71.1480 C.3    59  ILE59       0.0001
     53  N         -0.8120   36.5750   74.6770 N.3    62  GLY62      -0.1210
     54  CA        -1.0580   37.1450   73.3570 C.3    62  GLY62       0.1956
     55  C         -0.5020   38.5540   73.1170 C.2    62  GLY62       0.2612
     56  O         -1.0740   39.3450   72.3550 O.2    62  GLY62      -0.2717
     57  N          0.6280   38.8950   73.7380 N.am   63  LYS63      -0.1965
     58  CA         1.1880   40.2450   73.6650 C.3    63  LYS63       0.1728
     59  C          2.3470   40.2360   72.6860 C.2    63  LYS63       0.2616
     60  O          2.8000   39.1600   72.2910 O.2    63  LYS63      -0.2715
     61  CB         1.7490   40.7040   75.0000 C.3    63  LYS63       0.0311
     62  CG         1.0310   40.1360   76.2000 C.3    63  LYS63       0.0038
     63  CD         1.6740   40.5540   77.5060 C.3    63  LYS63       0.0206
     64  CE         1.4470   42.0480   77.7590 C.3    63  LYS63       0.1093
     65  NZ         0.0360   42.4220   77.7080 N.3    63  LYS63      -0.1314
     66  N          2.8480   41.4130   72.2970 N.am   64  LEU64      -0.1963
     67  CA         4.0360   41.5270   71.4580 C.3    64  LEU64       0.1728
     68  C          5.2350   41.5100   72.4030 C.2    64  LEU64       0.2616
     69  O          5.1790   42.1060   73.4860 O.2    64  LEU64      -0.2715
     70  CB         4.0160   42.8560   70.6750 C.3    64  LEU64       0.0311
     71  CG         3.0200   43.0230   69.5080 C.3    64  LEU64       0.0022
     72  CD1        3.3250   44.3020   68.7540 C.3    64  LEU64       0.0001
     73  CD2        3.1560   41.8730   68.5160 C.3    64  LEU64       0.0001
     74  N          6.3120   40.8170   72.0310 N.am   65  ILE65      -0.1977
     75  CA         7.5930   40.8280   72.7630 C.3    65  ILE65       0.1596
     76  C          8.0980   42.2710   72.6930 C.2    65  ILE65       0.2287
     77  O          7.7670   42.9210   71.6930 O.2    65  ILE65      -0.2864
     78  CB         8.5470   39.8130   72.0580 C.3    65  ILE65       0.0276
     79  CG1        8.1390   38.3970   72.4900 C.3    65  ILE65       0.0022
     80  CG2       10.0100   40.0280   72.4140 C.3    65  ILE65       0.0022
     81  CD1        6.7880   37.8850   71.9510 C.3    65  ILE65       0.0001
     82  N         13.1120   42.0610   70.4710 N.3    70  MET70      -0.1245
     83  CA        12.7690   41.6020   69.1330 C.3    70  MET70       0.1570
     84  C         13.7640   42.1900   68.1050 C.2    70  MET70       0.2261
     85  O         14.2440   41.4640   67.2230 O.2    70  MET70      -0.2867
     86  CB        11.3410   42.0460   68.8130 C.3    70  MET70       0.0387
     87  CG        10.9120   41.3250   67.5770 C.3    70  MET70       0.0595
     88  SD        10.5940   39.5620   67.8250 S.3    70  MET70      -0.1393
     89  CE        11.7930   38.6700   66.9150 C.3    70  MET70       0.0692
     90  N          6.9440   39.2010   59.4980 N.3    90  GLY90      -0.1210
     91  CA         6.4950   39.3850   60.8650 C.3    90  GLY90       0.1956
     92  C          7.3020   40.4870   61.5490 C.2    90  GLY90       0.2611
     93  O          6.9770   40.9350   62.6500 O.2    90  GLY90      -0.2717
     94  N          8.3950   40.9910   60.9660 N.am   91  PHE91      -0.1976
     95  CA         9.2180   42.0400   61.5590 C.3    91  PHE91       0.1639
     96  C          9.4100   43.0510   60.4170 C.2    91  PHE91       0.2290
     97  O          9.7220   42.6030   59.3060 O.2    91  PHE91      -0.2864
     98  CB        10.6350   41.5510   61.9430 C.3    91  PHE91       0.0560
     99  CG        11.5150   42.6310   62.5960 C.ar   91  PHE91      -0.0200
    100  CD1       12.2450   43.5260   61.8210 C.ar   91  PHE91      -0.0042
    101  CD2       11.5330   42.7730   63.9780 C.ar   91  PHE91      -0.0042
    102  CE1       12.9510   44.5390   62.4220 C.ar   91  PHE91      -0.0003
    103  CE2       12.2520   43.7900   64.5580 C.ar   91  PHE91      -0.0003
    104  CZ        12.9640   44.6810   63.7820 C.ar   91  PHE91      -0.0000
    105  N          6.9720   44.9420   63.1550 N.3    93  ARG93      -0.1245
    106  CA         5.5810   44.8600   63.5180 C.3    93  ARG93       0.1563
    107  C          5.1280   46.1920   64.0900 C.2    93  ARG93       0.2260
    108  O          3.9190   46.5210   64.1190 O.2    93  ARG93      -0.2867
    109  CB         5.4660   43.7180   64.5320 C.3    93  ARG93       0.0307
    110  CG         4.0880   43.4100   65.0600 C.3    93  ARG93       0.0489
    111  CD         3.3320   42.6750   63.9930 C.3    93  ARG93       0.2205
    112  NE         2.7700   41.5190   64.6460 N.pl3  93  ARG93      -0.0865
    113  CZ         3.1930   40.2700   64.4020 C.cat  93  ARG93       0.5346
    114  NH1        4.1850   39.9650   63.5320 N.pl3  93  ARG93       0.1354
    115  NH2        2.5630   39.3160   65.0790 N.pl3  93  ARG93       0.1354
    116  N         10.2930   49.2270   65.6690 N.3    97  GLN97      -0.1245
    117  CA        11.0500   48.1690   65.0300 C.3    97  GLN97       0.1566
    118  C         11.3870   48.6400   63.6410 C.2    97  GLN97       0.2260
    119  O         12.4920   48.4240   63.1820 O.2    97  GLN97      -0.2867
    120  CB        10.2360   46.9190   64.9480 C.3    97  GLN97       0.0367
    121  CG        10.0320   46.3190   66.3240 C.3    97  GLN97       0.0905
    122  CD         9.1490   45.0680   66.3300 C.2    97  GLN97       0.2608
    123  OE1        8.9050   44.4380   65.3050 O.2    97  GLN97      -0.2717
    124  NE2        8.5650   44.6200   67.4300 N.am   97  GLN97      -0.0878
@<TRIPOS>BOND
     1     4     3    2
     2     2     1    1
     3     2     3    1
     4     2     5    1
     5     5     6    1
     6     6     7    1
     7     7     8    1
     8     8     9    1
     9    97    96    2
    10    10    11    1
    11    90    91    1
    12    14    11    1
    13    14    15    1
    14    11    12    1
    15    96    95    1
    16    91    92    1
    17    94    92   am
    18    94    95    1
    19    92    93    2
    20    12    16   am
    21    12    13    2
    22    95    98    1
    23   100   102   ar
    24   100    99   ar
    25    98    99    1
    26    16    17    1
    27   102   104   ar
    28    99   101   ar
    29   105   106    1
    30   119   118    2
    31    21    20    1
    32    43    42    1
    33   106   107    1
    34   106   109    1
    35    17    20    1
    36    17    18    1
    37   114   113    1
    38   118   117    1
    39   104   103   ar
    40    44    42    1
    41   101   103   ar
    42   111   112    1
    43   111   110    1
    44    22    18   am
    45    22    23    1
    46   107   108    2
    47    42    41    2
    48   113   112    2
    49   113   115    1
    50    18    19    2
    51   109   110    1
    52    24    23    1
    53    24    25    2
    54   120   117    1
    55   120   121    1
    56   117   116    1
    57   123   122    2
    58    41    40    1
    59    40    39    1
    60   121   122    1
    61   122   124   am
    62    89    88    1
    63    38    39    1
    64    38    35    1
    65    85    84    2
    66    26    27    1
    67    87    88    1
    68    87    86    1
    69    34    35    1
    70    34    28   am
    71    84    83    1
    72    35    36    1
    73    73    71    1
    74    36    37    2
    75    31    32    1
    76    31    30    1
    77    31    33    1
    78    27    30    1
    79    27    28    1
    80    72    71    1
    81    86    83    1
    82    28    29    2
    83    83    82    1
    84    71    70    1
    85    70    67    1
    86    52    50    1
    87    67    66    1
    88    67    68    1
    89    77    76    2
    90    81    79    1
    91    50    49    1
    92    74    68   am
    93    74    75    1
    94    78    80    1
    95    78    79    1
    96    78    75    1
    97    51    49    1
    98    60    59    2
    99    66    59   am
   100    56    55    2
   101    68    69    2
   102    59    58    1
   103    76    75    1
   104    49    46    1
   105    55    54    1
   106    55    57   am
   107    54    53    1
   108    58    57    1
   109    58    61    1
   110    46    47    1
   111    46    45    1
   112    48    47    2
   113    61    62    1
   114    62    63    1
   115    63    64    1
   116    65    64    1
