@<TRIPOS>MOLECULE
tmp/2akaC00.pdb
 110 105 0 0 0
SMALL
GASTEIGER

@<TRIPOS>ATOM
      1  N         67.5830  -27.1840   17.2750 N.3     7  LEU7       -0.1245
      2  CA        67.1560  -25.7830   17.2980 C.3     7  LEU7        0.1561
      3  C         65.6370  -25.6700   17.1000 C.2     7  LEU7        0.2260
      4  O         64.9260  -24.9160   17.7900 O.2     7  LEU7       -0.2867
      5  CB        67.8880  -24.9730   16.1890 C.3     7  LEU7        0.0270
      6  CG        67.2260  -23.6740   15.6570 C.3     7  LEU7        0.0019
      7  CD1       66.8540  -22.6880   16.7810 C.3     7  LEU7        0.0001
      8  CD2       68.2010  -22.9670   14.7120 C.3     7  LEU7        0.0001
      9  N         63.5960  -26.6440   20.1170 N.3    10  ARG10      -0.1231
     10  CA        63.3860  -25.5770   21.1200 C.3    10  ARG10       0.1694
     11  C         62.2680  -24.6670   20.7190 C.2    10  ARG10       0.2591
     12  O         61.5180  -24.1720   21.5660 O.2    10  ARG10      -0.2718
     13  CB        64.6350  -24.6970   21.3340 C.3    10  ARG10       0.0321
     14  CG        65.8530  -25.3650   21.8900 C.3    10  ARG10       0.0489
     15  CD        66.8920  -24.2640   22.2530 C.3    10  ARG10       0.2205
     16  NE        68.2630  -24.7600   22.1510 N.pl3  10  ARG10      -0.0865
     17  CZ        68.9020  -25.0030   21.0030 C.cat  10  ARG10       0.5346
     18  NH1       68.3020  -24.7820   19.8450 N.pl3  10  ARG10       0.1354
     19  NH2       70.1310  -25.5110   21.0090 N.pl3  10  ARG10       0.1354
     20  N         62.1480  -24.4200   19.4150 N.am   11  LEU11      -0.1980
     21  CA        61.0830  -23.5900   18.9600 C.3    11  LEU11       0.1596
     22  C         59.7480  -24.3140   19.1870 C.2    11  LEU11       0.2287
     23  O         58.7680  -23.6980   19.6040 O.2    11  LEU11      -0.2864
     24  CB        61.2870  -23.2470   17.4800 C.3    11  LEU11       0.0297
     25  CG        62.3770  -22.1930   17.2720 C.3    11  LEU11       0.0022
     26  CD1       62.8400  -22.1710   15.8020 C.3    11  LEU11       0.0001
     27  CD2       61.7660  -20.8140   17.6740 C.3    11  LEU11       0.0001
     28  N         58.8380  -23.9100   22.7300 N.3    14  ALA14      -0.1231
     29  CA        58.3660  -22.5610   23.0270 C.3    14  ALA14       0.1694
     30  C         56.9640  -22.2900   22.4740 C.2    14  ALA14       0.2592
     31  O         56.1940  -21.5550   23.0810 O.2    14  ALA14      -0.2718
     32  CB        59.3720  -21.5240   22.5070 C.3    14  ALA14       0.0304
     33  N         56.5890  -22.9140   21.3640 N.am   15  PHE15      -0.1976
     34  CA        55.2650  -22.6470   20.8290 C.3    15  PHE15       0.1639
     35  C         54.2050  -23.5970   21.2930 C.2    15  PHE15       0.2290
     36  O         53.0470  -23.4350   20.9360 O.2    15  PHE15      -0.2864
     37  CB        55.2780  -22.6440   19.2960 C.3    15  PHE15       0.0560
     38  CG        55.9540  -21.4390   18.7120 C.ar   15  PHE15      -0.0200
     39  CD1       57.3090  -21.4510   18.4370 C.ar   15  PHE15      -0.0042
     40  CD2       55.2260  -20.2720   18.4620 C.ar   15  PHE15      -0.0042
     41  CE1       57.9480  -20.3350   17.9220 C.ar   15  PHE15      -0.0003
     42  CE2       55.8680  -19.1240   17.9340 C.ar   15  PHE15      -0.0003
     43  CZ        57.2290  -19.1690   17.6680 C.ar   15  PHE15      -0.0000
     44  N         65.3700  -21.9490    7.6560 N.3   288  LEU288     -0.1231
     45  CA        65.9240  -21.1860    8.7940 C.3   288  LEU288      0.1678
     46  C         66.3800  -19.7710    8.4510 C.2   288  LEU288      0.2434
     47  O         66.0940  -18.8040    9.1800 O.2   288  LEU288     -0.2733
     48  CB        67.1150  -21.9480    9.4010 C.3   288  LEU288      0.0284
     49  CG        67.7120  -21.4400   10.7130 C.3   288  LEU288      0.0019
     50  CD1       66.6760  -21.5830   11.8200 C.3   288  LEU288      0.0001
     51  CD2       68.9490  -22.2410   11.0720 C.3   288  LEU288      0.0001
     52  N         67.0900  -19.6220    7.3220 N.am  289  PRO289     -0.2729
     53  CA        67.5360  -18.2690    6.9870 C.3   289  PRO289      0.1401
     54  C         66.4740  -17.1690    7.0870 C.2   289  PRO289      0.2269
     55  O         66.7470  -16.1170    7.6410 O.2   289  PRO289     -0.2865
     56  CB        68.1370  -18.4280    5.5790 C.3   289  PRO289      0.0296
     57  CG        67.5250  -19.7180    5.0510 C.3   289  PRO289      0.0237
     58  CD        67.4760  -20.5920    6.2790 C.3   289  PRO289      0.0939
     59  N         63.5480  -17.4640    8.6880 N.3   291  LEU291     -0.1231
     60  CA        62.7430  -17.7190    9.8740 C.3   291  LEU291      0.1693
     61  C         62.6130  -16.6060   10.9110 C.2   291  LEU291      0.2592
     62  O         61.5270  -16.1020   11.1120 O.2   291  LEU291     -0.2718
     63  CB        63.2420  -18.9950   10.5540 C.3   291  LEU291      0.0284
     64  CG        62.2870  -19.6120   11.5790 C.3   291  LEU291      0.0019
     65  CD1       60.8530  -19.5910   11.0500 C.3   291  LEU291      0.0001
     66  CD2       62.7410  -21.0390   11.8760 C.3   291  LEU291      0.0001
     67  N         63.6990  -16.2150   11.5740 N.am  292  ARG292     -0.1966
     68  CA        63.5960  -15.1720   12.6050 C.3   292  ARG292      0.1729
     69  C         62.7600  -13.9450   12.2340 C.2   292  ARG292      0.2616
     70  O         61.8550  -13.5470   12.9820 O.2   292  ARG292     -0.2715
     71  CB        64.9810  -14.7030   13.0310 C.3   292  ARG292      0.0348
     72  CG        64.9930  -13.8390   14.2990 C.3   292  ARG292      0.0492
     73  CD        66.4300  -13.6780   14.7710 C.3   292  ARG292      0.2205
     74  NE        66.5310  -13.3380   16.1840 N.pl3 292  ARG292     -0.0865
     75  CZ        66.2110  -12.1530   16.6920 C.cat 292  ARG292      0.5346
     76  NH1       65.7720  -11.1870   15.8940 N.pl3 292  ARG292      0.1354
     77  NH2       66.3270  -11.9350   18.0020 N.pl3 292  ARG292      0.1354
     78  N         63.0710  -13.3300   11.0960 N.am  293  ASN293     -0.1972
     79  CA        62.3320  -12.1400   10.6560 C.3   293  ASN293      0.1688
     80  C         60.8770  -12.4530   10.3800 C.2   293  ASN293      0.2292
     81  O         59.9910  -11.6680   10.7150 O.2   293  ASN293     -0.2864
     82  CB        62.9510  -11.5600    9.3880 C.3   293  ASN293      0.1181
     83  CG        64.3370  -10.9950    9.6230 C.2   293  ASN293      0.2629
     84  OD1       65.1590  -10.9400    8.6930 O.2   293  ASN293     -0.2716
     85  ND2       64.6120  -10.5590   10.8630 N.am  293  ASN293     -0.0877
     86  N         58.9890  -14.8890   11.6970 N.3   295  LEU295     -0.1231
     87  CA        58.2800  -15.1140   12.9550 C.3   295  LEU295      0.1693
     88  C         57.8500  -13.8260   13.6250 C.2   295  LEU295      0.2591
     89  O         56.7070  -13.7090   14.0600 O.2   295  LEU295     -0.2718
     90  CB        59.1370  -15.9240   13.9250 C.3   295  LEU295      0.0284
     91  CG        59.0420  -17.4270   13.6850 C.3   295  LEU295      0.0019
     92  CD1       60.2340  -18.1330   14.3330 C.3   295  LEU295      0.0001
     93  CD2       57.7160  -17.9360   14.2310 C.3   295  LEU295      0.0001
     94  N         58.7620  -12.8630   13.7110 N.am  296  GLN296     -0.1979
     95  CA        58.4410  -11.5890   14.3330 C.3   296  GLN296      0.1601
     96  C         57.1760  -11.0040   13.7430 C.2   296  GLN296      0.2287
     97  O         56.3010  -10.5480   14.4720 O.2   296  GLN296     -0.2864
     98  CB        59.5620  -10.5800   14.1340 C.3   296  GLN296      0.0394
     99  CG        60.8510  -10.9620   14.7850 C.3   296  GLN296      0.0908
    100  CD        61.7810   -9.7810   14.8920 C.2   296  GLN296      0.2608
    101  OE1       61.4290   -8.7600   15.4970 O.2   296  GLN296     -0.2717
    102  NE2       62.9720   -9.9010   14.3000 N.am  296  GLN296     -0.0878
    103  N         53.8100  -13.2920   14.7400 N.3   299  LEU299     -0.1245
    104  CA        53.3380  -13.4690   16.1050 C.3   299  LEU299      0.1561
    105  C         52.2730  -12.4320   16.4590 C.2   299  LEU299      0.2260
    106  O         52.4590  -11.2620   16.0730 O.2   299  LEU299     -0.2867
    107  CB        54.5120  -13.3850   17.0690 C.3   299  LEU299      0.0270
    108  CG        55.3180  -14.6790   17.1840 C.3   299  LEU299      0.0019
    109  CD1       56.6760  -14.3900   17.7970 C.3   299  LEU299      0.0001
    110  CD2       54.5370  -15.6600   18.0450 C.3   299  LEU299      0.0001
@<TRIPOS>BOND
     1    57    56    1
     2    57    58    1
     3    56    53    1
     4    58    52    1
     5    53    54    1
     6    53    52    1
     7    54    55    2
     8    52    46   am
     9    44    45    1
    10    46    45    1
    11    46    47    2
    12    59    60    1
    13    84    83    2
    14    45    48    1
    15    82    83    1
    16    82    79    1
    17    48    49    1
    18    83    85   am
    19    60    63    1
    20    60    61    1
    21    80    79    1
    22    80    81    2
    23    63    64    1
    24    79    78    1
    25    49    51    1
    26    49    50    1
    27    61    62    2
    28    61    67   am
    29    65    64    1
    30    78    69   am
    31    67    68    1
    32    64    66    1
    33    86    87    1
    34    69    68    1
    35    69    70    2
    36    68    71    1
    37    87    88    1
    38    87    90    1
    39    71    72    1
    40    88    94   am
    41    88    89    2
    42    91    90    1
    43    91    93    1
    44    91    92    1
    45    94    95    1
    46    96    95    1
    47    96    97    2
    48    98    95    1
    49    98    99    1
    50    72    73    1
    51   102   100   am
    52     8     6    1
    53   103   104    1
    54    73    74    1
    55    99   100    1
    56   100   101    2
    57     6     5    1
    58     6     7    1
    59    26    25    1
    60    76    75    1
    61   106   105    2
    62   104   105    1
    63   104   107    1
    64    74    75    2
    65     5     2    1
    66    75    77    1
    67   107   108    1
    68     3     2    1
    69     3     4    2
    70   108   109    1
    71   108   110    1
    72    25    24    1
    73    25    27    1
    74     1     2    1
    75    24    21    1
    76    43    41   ar
    77    43    42   ar
    78    41    39   ar
    79    42    40   ar
    80    39    38   ar
    81    40    38   ar
    82    38    37    1
    83    21    22    1
    84    21    20    1
    85    22    23    2
    86    37    34    1
    87    20    11   am
    88    18    17    1
    89     9    10    1
    90    11    10    1
    91    11    12    2
    92    34    35    1
    93    34    33    1
    94    36    35    2
    95    17    19    1
    96    17    16    2
    97    10    13    1
    98    13    14    1
    99    33    30   am
   100    14    15    1
   101    16    15    1
   102    30    29    1
   103    30    31    2
   104    32    29    1
   105    28    29    1
