@<TRIPOS>MOLECULE
tmp/2akoC00.pdb
 179 176 0 0 0
SMALL
GASTEIGER

@<TRIPOS>ATOM
      1  N         -3.1250  -76.7130    7.9790 N.3     6  LYS6       -0.1245
      2  CA        -2.7180  -75.4540    8.5580 C.3     6  LYS6        0.1561
      3  C         -1.8190  -74.7090    7.5540 C.2     6  LYS6        0.2260
      4  O         -0.8120  -75.2460    7.0890 O.2     6  LYS6       -0.2867
      5  CB        -1.9850  -75.7010    9.8760 C.3     6  LYS6        0.0271
      6  CG        -1.5790  -74.4130   10.6150 C.3     6  LYS6        0.0035
      7  CD        -0.1270  -74.0760   10.3830 C.3     6  LYS6        0.0206
      8  CE         0.1810  -72.6380   10.7150 C.3     6  LYS6        0.1093
      9  NZ         1.6050  -72.4560   11.0630 N.3     6  LYS6       -0.1314
     10  N          0.4250  -71.2750    7.1460 N.3     8  GLY8       -0.1210
     11  CA         1.0630  -70.1840    7.8660 C.3     8  GLY8        0.1956
     12  C          1.0570  -68.8790    7.0880 C.2     8  GLY8        0.2613
     13  O          0.7770  -68.8440    5.8830 O.2     8  GLY8       -0.2717
     14  N          1.3960  -67.8030    7.7830 N.am    9  SER9       -0.1938
     15  CA         1.2890  -66.4620    7.2100 C.3     9  SER9        0.2055
     16  C          2.1160  -66.2850    5.9350 C.2     9  SER9        0.2643
     17  O          1.5900  -65.8150    4.9340 O.2     9  SER9       -0.2714
     18  CB         1.6780  -65.3970    8.2460 C.3     9  SER9        0.2130
     19  OG         1.1250  -64.1520    7.8690 O.3     9  SER9       -0.2179
     20  N          3.3870  -66.6860    5.9670 N.am   10  HIS10      -0.1959
     21  CA         4.2670  -66.5650    4.7890 C.3    10  HIS10       0.1787
     22  C          3.6720  -67.1720    3.5190 C.2    10  HIS10       0.2620
     23  O          3.8540  -66.6260    2.4470 O.2    10  HIS10      -0.2715
     24  CB         5.6290  -67.2250    5.0240 C.3    10  HIS10       0.0785
     25  CG         6.3730  -66.6900    6.2060 C.ar   10  HIS10       0.0821
     26  ND1        7.0470  -67.5080    7.0890 N.ar   10  HIS10      -0.2267
     27  CD2        6.5450  -65.4230    6.6570 C.ar   10  HIS10       0.1154
     28  CE1        7.6110  -66.7690    8.0290 C.ar   10  HIS10       0.1986
     29  NE2        7.3190  -65.5010    7.7920 N.ar   10  HIS10      -0.2212
     30  N          2.9730  -68.2960    3.6530 N.am   11  VAL11      -0.1977
     31  CA         2.4790  -69.0640    2.5170 C.3    11  VAL11       0.1596
     32  C          1.3850  -68.3510    1.7180 C.2    11  VAL11       0.2287
     33  O          1.2140  -68.6220    0.5330 O.2    11  VAL11      -0.2864
     34  CB         1.9370  -70.4440    2.9770 C.3    11  VAL11       0.0276
     35  CG1        1.2820  -71.1940    1.8220 C.3    11  VAL11       0.0022
     36  CG2        3.0470  -71.2850    3.5750 C.3    11  VAL11       0.0022
     37  N          2.2150  -68.6790   15.2810 N.3   137  ASP137     -0.1239
     38  CA         1.4740  -68.5110   14.0340 C.3   137  ASP137      0.1674
     39  C          0.5140  -69.7020   13.7440 C.2   137  ASP137      0.2266
     40  O          0.4350  -70.1600   12.6040 O.2   137  ASP137     -0.2867
     41  CB         2.4820  -68.3020   12.8890 C.3   137  ASP137      0.1410
     42  CG         1.8140  -68.0270   11.5370 C.2   137  ASP137      0.3668
     43  OD1        0.8160  -67.2710   11.4910 O.co2 137  ASP137     -0.2456
     44  OD2        2.2930  -68.5780   10.5220 O.co2 137  ASP137     -0.2456
     45  N          0.9870  -79.3030    8.0330 N.3   156  ILE156     -0.1231
     46  CA         1.4600  -77.9260    8.1380 C.3   156  ILE156      0.1692
     47  C          2.1440  -77.5860    6.8250 C.2   156  ILE156      0.2592
     48  O          3.1390  -78.2230    6.4570 O.2   156  ILE156     -0.2718
     49  CB         2.4260  -77.7360    9.3230 C.3   156  ILE156      0.0266
     50  CG1        1.7090  -78.0980   10.6190 C.3   156  ILE156      0.0019
     51  CG2        2.9720  -76.2860    9.3690 C.3   156  ILE156      0.0020
     52  CD1        2.4260  -77.6840   11.8610 C.3   156  ILE156      0.0001
     53  N          1.5670  -76.6140    6.1120 N.am  157  LEU157     -0.1966
     54  CA         2.1840  -76.0360    4.9240 C.3   157  LEU157      0.1728
     55  C          2.9630  -74.8040    5.3830 C.2   157  LEU157      0.2617
     56  O          2.4280  -73.9260    6.0960 O.2   157  LEU157     -0.2715
     57  CB         1.1500  -75.6820    3.8590 C.3   157  LEU157      0.0311
     58  CG         0.2970  -76.8420    3.3210 C.3   157  LEU157      0.0022
     59  CD1       -0.7370  -76.3910    2.3120 C.3   157  LEU157      0.0001
     60  CD2        1.1500  -77.9320    2.7000 C.3   157  LEU157      0.0001
     61  N          4.2340  -74.7680    5.0030 N.am  158  SER158     -0.1936
     62  CA         5.1860  -73.8490    5.5870 C.3   158  SER158      0.2055
     63  C          6.1070  -73.2650    4.5190 C.2   158  SER158      0.2643
     64  O          6.0790  -73.6890    3.3600 O.2   158  SER158     -0.2714
     65  CB         5.9980  -74.6070    6.6410 C.3   158  SER158      0.2130
     66  OG         6.8940  -73.7590    7.3260 O.3   158  SER158     -0.2179
     67  N          6.9200  -72.2840    4.8960 N.am  159  ASP159     -0.1957
     68  CA         7.9440  -71.8070    3.9770 C.3   159  ASP159      0.1840
     69  C          9.1430  -72.7690    3.9590 C.2   159  ASP159      0.2621
     70  O          9.8780  -72.8020    2.9870 O.2   159  ASP159     -0.2715
     71  CB         8.3320  -70.3360    4.2130 C.3   159  ASP159      0.1450
     72  CG         8.9110  -70.0720    5.5840 C.2   159  ASP159      0.3671
     73  OD1        9.4450  -71.0050    6.2360 O.co2 159  ASP159     -0.2456
     74  OD2        8.8390  -68.8940    6.0090 O.co2 159  ASP159     -0.2456
     75  N          9.3220  -73.5740    5.0060 N.am  160  ILE160     -0.1977
     76  CA        10.2400  -74.7150    4.8980 C.3   160  ILE160      0.1596
     77  C          9.5640  -75.9830    4.4080 C.2   160  ILE160      0.2287
     78  O          8.4160  -76.2880    4.7690 O.2   160  ILE160     -0.2864
     79  CB        10.9500  -75.0940    6.1910 C.3   160  ILE160      0.0276
     80  CG1       10.0090  -75.0340    7.3900 C.3   160  ILE160      0.0022
     81  CG2       12.1770  -74.2370    6.3590 C.3   160  ILE160      0.0022
     82  CD1       10.5130  -75.8350    8.5270 C.3   160  ILE160      0.0001
     83  N         10.5150  -79.1360    4.9390 N.3   162  GLY162     -0.1210
     84  CA        10.7060  -80.3270    5.7670 C.3   162  GLY162      0.1956
     85  C         11.5230  -80.0630    7.0130 C.2   162  GLY162      0.2612
     86  O         12.0110  -78.9540    7.2180 O.2   162  GLY162     -0.2717
     87  N         11.6600  -81.0850    7.8500 N.am  163  PHE163     -0.1962
     88  CA        12.4800  -81.0090    9.0660 C.3   163  PHE163      0.1771
     89  C         13.8600  -81.6460    8.8170 C.2   163  PHE163      0.2620
     90  O         13.9490  -82.7600    8.3160 O.2   163  PHE163     -0.2715
     91  CB        11.7500  -81.6840   10.2290 C.3   163  PHE163      0.0574
     92  CG        12.5410  -81.7470   11.5070 C.ar  163  PHE163     -0.0200
     93  CD1       13.2170  -80.6340   11.9930 C.ar  163  PHE163     -0.0042
     94  CD2       12.5780  -82.9110   12.2480 C.ar  163  PHE163     -0.0042
     95  CE1       13.9360  -80.7010   13.1700 C.ar  163  PHE163     -0.0003
     96  CE2       13.2960  -82.9760   13.4410 C.ar  163  PHE163     -0.0003
     97  CZ        13.9740  -81.8750   13.8960 C.ar  163  PHE163     -0.0000
     98  N         14.9130  -80.9290    9.2010 N.am  164  TYR164     -0.1960
     99  CA        16.2920  -81.2710    8.8750 C.3   164  TYR164      0.1771
    100  C         17.0700  -81.6710   10.1120 C.2   164  TYR164      0.2620
    101  O         16.6680  -81.3720   11.2310 O.2   164  TYR164     -0.2715
    102  CB        16.9760  -80.0670    8.2200 C.3   164  TYR164      0.0574
    103  CG        16.5150  -79.8410    6.8070 C.ar  164  TYR164     -0.0198
    104  CD1       15.2650  -79.2890    6.5360 C.ar  164  TYR164     -0.0009
    105  CD2       17.3160  -80.2110    5.7310 C.ar  164  TYR164     -0.0009
    106  CE1       14.8380  -79.1090    5.2280 C.ar  164  TYR164      0.0417
    107  CE2       16.8950  -80.0320    4.4240 C.ar  164  TYR164      0.0417
    108  CZ        15.6630  -79.4880    4.1760 C.ar  164  TYR164      0.1957
    109  OH        15.2590  -79.3180    2.8660 O.3   164  TYR164     -0.2866
    110  N         18.2030  -82.3350    9.9000 N.am  165  ASP165     -0.1957
    111  CA        19.0860  -82.7430   11.0000 C.3   165  ASP165      0.1840
    112  C         19.8830  -81.5680   11.5930 C.2   165  ASP165      0.2622
    113  O         20.5070  -81.7030   12.6450 O.2   165  ASP165     -0.2715
    114  CB        20.0240  -83.8690   10.5420 C.3   165  ASP165      0.1450
    115  CG        20.9690  -83.4460    9.4090 C.2   165  ASP165      0.3671
    116  OD1       21.8560  -84.2520    9.0870 O.co2 165  ASP165     -0.2456
    117  OD2       20.8360  -82.3310    8.8340 O.co2 165  ASP165     -0.2456
    118  N         19.8740  -80.4350   10.8930 N.am  166  LYS166     -0.1963
    119  CA        20.3780  -79.1680   11.4130 C.3   166  LYS166      0.1728
    120  C         19.7710  -78.0210   10.6230 C.2   166  LYS166      0.2616
    121  O         19.1570  -78.2480    9.5820 O.2   166  LYS166     -0.2715
    122  CB        21.9130  -79.1060   11.3670 C.3   166  LYS166      0.0311
    123  CG        22.5670  -79.7060   10.1320 C.3   166  LYS166      0.0038
    124  CD        24.0930  -79.7210   10.2790 C.3   166  LYS166      0.0206
    125  CE        24.7150  -81.0070    9.7300 C.3   166  LYS166      0.1093
    126  NZ        26.2220  -80.9570    9.7220 N.3   166  LYS166     -0.1314
    127  N         19.9390  -76.7980   11.1250 N.am  167  ASN167     -0.1959
    128  CA        19.3180  -75.6170   10.5230 C.3   167  ASN167      0.1804
    129  C         19.8150  -75.4430    9.0940 C.2   167  ASN167      0.2463
    130  O         21.0060  -75.2300    8.8790 O.2   167  ASN167     -0.2730
    131  CB        19.6180  -74.3600   11.3520 C.3   167  ASN167      0.1195
    132  CG        18.7700  -73.1500   10.9430 C.2   167  ASN167      0.2630
    133  OD1       18.2260  -73.0840    9.8360 O.2   167  ASN167     -0.2716
    134  ND2       18.6620  -72.1790   11.8480 N.am  167  ASN167     -0.0877
    135  N         18.9120  -75.5730    8.1100 N.am  168  PRO168     -0.2716
    136  CA        19.3220  -75.4410    6.7180 C.3   168  PRO168      0.1536
    137  C         19.6050  -73.9910    6.3060 C.2   168  PRO168      0.2599
    138  O         20.3730  -73.7610    5.3720 O.2   168  PRO168     -0.2715
    139  CB        18.1240  -76.0040    5.9550 C.3   168  PRO168      0.0310
    140  CG        16.9710  -75.7310    6.8310 C.3   168  PRO168      0.0237
    141  CD        17.4700  -75.8580    8.2290 C.3   168  PRO168      0.0939
    142  N         18.9830  -73.0280    6.9860 N.am  169  SER169     -0.1950
    143  CA        19.3030  -71.6160    6.7790 C.3   169  SER169      0.1924
    144  C         20.7420  -71.3210    7.1910 C.2   169  SER169      0.2314
    145  O         21.3820  -70.4480    6.6060 O.2   169  SER169     -0.2863
    146  CB        18.3510  -70.7070    7.5630 C.3   169  SER169      0.2116
    147  OG        17.0160  -70.8280    7.0960 O.3   169  SER169     -0.2180
    148  N          7.0430  -66.0620   14.0250 N.3   191  THR191     -0.1203
    149  CA         6.2190  -67.1600   13.5260 C.3   191  THR191      0.1994
    150  C          6.4200  -68.4490   14.3310 C.2   191  THR191      0.2618
    151  O          5.5050  -69.2480   14.4260 O.2   191  THR191     -0.2717
    152  CB         6.4490  -67.4380   12.0110 C.3   191  THR191      0.1784
    153  OG1        7.8320  -67.7050   11.7560 O.3   191  THR191     -0.2211
    154  CG2        5.9890  -66.2530   11.1670 C.3   191  THR191      0.0376
    155  N          7.6040  -68.6540   14.9060 N.am  192  GLY192     -0.1942
    156  CA         7.8430  -69.8090   15.7700 C.3   192  GLY192      0.2014
    157  C          8.9790  -70.7100   15.3340 C.2   192  GLY192      0.2639
    158  O          9.4590  -71.5370   16.1080 O.2   192  GLY192     -0.2714
    159  N          9.4170  -70.5650   14.0890 N.am  193  GLY193     -0.1939
    160  CA        10.4900  -71.4000   13.5830 C.3   193  GLY193      0.2014
    161  C         10.1280  -72.8800   13.5970 C.2   193  GLY193      0.2638
    162  O          8.9470  -73.2660   13.5250 O.2   193  GLY193     -0.2714
    163  N         11.1560  -73.7140   13.6930 N.am  194  ILE194     -0.1977
    164  CA        10.9680  -75.1510   13.7420 C.3   194  ILE194      0.1596
    165  C         10.4130  -75.5830   15.1120 C.2   194  ILE194      0.2287
    166  O          9.6180  -76.5010   15.2000 O.2   194  ILE194     -0.2864
    167  CB        12.2970  -75.8950   13.3590 C.3   194  ILE194      0.0276
    168  CG1       12.0220  -77.3490   12.9740 C.3   194  ILE194      0.0022
    169  CG2       13.3290  -75.8260   14.4910 C.3   194  ILE194      0.0022
    170  CD1       11.0660  -77.5150   11.7930 C.3   194  ILE194      0.0001
    171  N          6.6310  -76.1080   15.4960 N.3   197  LYS197     -0.1245
    172  CA         6.2360  -77.2850   14.7200 C.3   197  LYS197      0.1561
    173  C          6.5100  -78.5840   15.4780 C.2   197  LYS197      0.2260
    174  O          5.6390  -79.4570   15.5640 O.2   197  LYS197     -0.2867
    175  CB         6.9450  -77.2790   13.3710 C.3   197  LYS197      0.0271
    176  CG         6.2860  -76.3290   12.3970 C.3   197  LYS197      0.0035
    177  CD         7.2430  -75.7060   11.4250 C.3   197  LYS197      0.0206
    178  CE         6.4870  -74.7940   10.4580 C.3   197  LYS197      0.1093
    179  NZ         5.6920  -73.7380   11.1780 N.3   197  LYS197     -0.1314
@<TRIPOS>BOND
     1    33    32    2
     2    32    31    1
     3    35    34    1
     4    59    58    1
     5    23    22    2
     6    31    34    1
     7    31    30    1
     8    60    58    1
     9   109   108    1
    10    34    36    1
    11    70    69    2
    12    58    57    1
    13    64    63    2
    14    22    30   am
    15    22    21    1
    16    57    54    1
    17    69    68    1
    18    69    75   am
    19    68    71    1
    20    68    67    1
    21   108   107   ar
    22   108   106   ar
    23    71    72    1
    24    77    78    2
    25    77    76    1
    26   107   105   ar
    27    63    67   am
    28    63    62    1
    29    21    24    1
    30    21    20    1
    31    76    75    1
    32    76    79    1
    33    54    55    1
    34    54    53    1
    35    17    16    2
    36    83    84    1
    37    61    55   am
    38    61    62    1
    39    24    25    1
    40   106   104   ar
    41   138   137    2
    42    55    56    2
    43    72    74   ar
    44    72    73   ar
    45    62    65    1
    46   105   103   ar
    47    84    85    1
    48    13    12    2
    49    16    20   am
    50    16    15    1
    51   139   136    1
    52   139   140    1
    53    53    47   am
    54    79    81    1
    55    79    80    1
    56    25    27   ar
    57    25    26   ar
    58   137   136    1
    59   137   142   am
    60    48    47    2
    61   104   103   ar
    62   145   144    2
    63    65    66    1
    64    27    29   ar
    65   136   135    1
    66   143   142    1
    67   143   144    1
    68   143   146    1
    69   103   102    1
    70    47    46    1
    71   140   141    1
    72    85    86    2
    73    85    87   am
    74    12    14   am
    75    12    11    1
    76    26    28   ar
    77     4     3    2
    78   147   146    1
    79    10    11    1
    80    15    14    1
    81    15    18    1
    82    80    82    1
    83     3     2    1
    84    29    28   ar
    85    87    88    1
    86    19    18    1
    87     1     2    1
    88    45    46    1
    89   135   141    1
    90   135   129   am
    91    46    49    1
    92   102    99    1
    93    90    89    2
    94     2     5    1
    95    89    88    1
    96    89    98   am
    97   117   115   ar
    98    99    98    1
    99    99   100    1
   100   130   129    2
   101    88    91    1
   102   116   115   ar
   103   129   128    1
   104    49    51    1
   105    49    50    1
   106   115   114    1
   107   121   120    2
   108   126   125    1
   109   125   124    1
   110   133   132    2
   111     5     6    1
   112   110   100   am
   113   110   111    1
   114   100   101    2
   115   123   124    1
   116   123   122    1
   117    91    92    1
   118     7     6    1
   119     7     8    1
   120   178   179    1
   121   178   177    1
   122    44    42   ar
   123   128   127    1
   124   128   131    1
   125   114   111    1
   126    50    52    1
   127   120   127   am
   128   120   119    1
   129     8     9    1
   130   118   119    1
   131   118   112   am
   132   132   131    1
   133   132   134   am
   134   111   112    1
   135   154   152    1
   136   122   119    1
   137   177   176    1
   138    43    42   ar
   139    92    93   ar
   140    92    94   ar
   141    42    41    1
   142   112   113    2
   143   153   152    1
   144   170   168    1
   145    93    95   ar
   146   152   149    1
   147    94    96   ar
   148   176   175    1
   149    40    39    2
   150    41    38    1
   151   168   167    1
   152    95    97   ar
   153   167   164    1
   154   167   169    1
   155   175   172    1
   156    96    97   ar
   157   162   161    2
   158   149   148    1
   159   149   150    1
   160   160   161    1
   161   160   159    1
   162   161   163   am
   163   163   164    1
   164   164   165    1
   165    39    38    1
   166    38    37    1
   167   159   157   am
   168   150   151    2
   169   150   155   am
   170   172   173    1
   171   172   171    1
   172   155   156    1
   173   165   166    2
   174   157   156    1
   175   157   158    2
   176   173   174    2
