@<TRIPOS>MOLECULE
tmp/2akwA00.pdb
 126 121 0 0 0
SMALL
GASTEIGER

@<TRIPOS>ATOM
      1  N         13.6160   63.5990   26.2740 N.3    65  TRP65      -0.1241
      2  CA        13.6370   62.1380   26.1840 C.3    65  TRP65       0.1605
      3  C         12.9560   61.4760   27.3840 C.2    65  TRP65       0.2264
      4  O         13.4600   61.5620   28.5050 O.2    65  TRP65      -0.2867
      5  CB        15.0880   61.6380   26.1210 C.3    65  TRP65       0.0550
      6  CG        15.8670   62.1260   24.9370 C.ar   65  TRP65       0.0003
      7  CD1       15.9010   61.5710   23.6930 C.ar   65  TRP65       0.0946
      8  CD2       16.6600   63.3180   24.8690 C.ar   65  TRP65       0.0152
      9  NE1       16.6600   62.3470   22.8500 N.ar   65  TRP65      -0.2442
     10  CE2       17.1380   63.4260   23.5480 C.ar   65  TRP65       0.0810
     11  CE3       17.0090   64.3080   25.7990 C.ar   65  TRP65       0.0012
     12  CZ2       17.9500   64.4860   23.1300 C.ar   65  TRP65       0.0191
     13  CZ3       17.8170   65.3620   25.3830 C.ar   65  TRP65       0.0001
     14  CH2       18.2770   65.4410   24.0610 C.ar   65  TRP65       0.0015
     15  N         18.0680   57.1970   22.6540 N.3    94  HIS94      -0.1241
     16  CA        18.5540   57.5680   21.3320 C.3    94  HIS94       0.1621
     17  C         19.8820   56.8750   21.1350 C.2    94  HIS94       0.2264
     18  O         20.4570   56.3730   22.0910 O.2    94  HIS94      -0.2867
     19  CB        18.7060   59.0910   21.1670 C.3    94  HIS94       0.0745
     20  CG        19.4880   59.7660   22.2540 C.ar   94  HIS94       0.0817
     21  ND1       19.8280   61.1030   22.1960 N.ar   94  HIS94      -0.2268
     22  CD2       19.9570   59.3100   23.4420 C.ar   94  HIS94       0.1154
     23  CE1       20.4690   61.4400   23.3020 C.ar   94  HIS94       0.1986
     24  NE2       20.5600   60.3710   24.0750 N.ar   94  HIS94      -0.2212
     25  N         22.6060   58.3170   20.1940 N.3    96  SER96      -0.1217
     26  CA        23.6820   59.2520   20.5350 C.3    96  SER96       0.1889
     27  C         24.7610   58.7760   21.5190 C.2    96  SER96       0.2288
     28  O         25.9500   58.9930   21.2790 O.2    96  SER96      -0.2866
     29  CB        23.0960   60.5690   21.0470 C.3    96  SER96       0.2089
     30  OG        22.5610   61.3280   19.9810 O.3    96  SER96      -0.2183
     31  N         28.0930   57.5990   20.1830 N.3    99  GLN99      -0.1245
     32  CA        29.1520   58.4020   19.6070 C.3    99  GLN99       0.1566
     33  C         30.1860   58.7420   20.6770 C.2    99  GLN99       0.2260
     34  O         31.2990   59.1760   20.3750 O.2    99  GLN99      -0.2867
     35  CB        28.5690   59.6510   18.9270 C.3    99  GLN99       0.0367
     36  CG        28.2890   60.8420   19.7950 C.3    99  GLN99       0.0905
     37  CD        27.6070   61.9510   19.0070 C.2    99  GLN99       0.2608
     38  OE1       27.8420   63.1380   19.2430 O.2    99  GLN99      -0.2717
     39  NE2       26.7480   61.5670   18.0710 N.am   99  GLN99      -0.0878
     40  N         11.5080   54.8370   24.3270 N.3   120  ARG120     -0.1245
     41  CA        11.0150   56.0320   24.9950 C.3   120  ARG120      0.1563
     42  C          9.6290   55.7790   25.5590 C.2   120  ARG120      0.2260
     43  O          8.7650   55.2300   24.8780 O.2   120  ARG120     -0.2867
     44  CB        10.9590   57.2140   24.0280 C.3   120  ARG120      0.0307
     45  CG        12.3020   57.6250   23.5090 C.3   120  ARG120      0.0489
     46  CD        12.2580   58.9960   22.9130 C.3   120  ARG120      0.2205
     47  NE        13.4490   59.2540   22.1190 N.pl3 120  ARG120     -0.0865
     48  CZ        13.6410   60.3590   21.4100 C.cat 120  ARG120      0.5346
     49  NH1       12.7180   61.3130   21.4040 N.pl3 120  ARG120      0.1354
     50  NH2       14.7460   60.5020   20.6860 N.pl3 120  ARG120      0.1354
     51  N         16.6910   54.7810   15.1490 N.3   134  GLN134     -0.1245
     52  CA        17.3690   56.0050   14.7420 C.3   134  GLN134      0.1566
     53  C         18.6180   55.6090   13.9710 C.2   134  GLN134      0.2260
     54  O         18.9960   54.4370   13.9370 O.2   134  GLN134     -0.2867
     55  CB        17.8060   56.8290   15.9510 C.3   134  GLN134      0.0367
     56  CG        16.7000   57.5310   16.6850 C.3   134  GLN134      0.0905
     57  CD        17.2190   58.5080   17.7280 C.2   134  GLN134      0.2608
     58  OE1       16.4670   59.3480   18.2240 O.2   134  GLN134     -0.2717
     59  NE2       18.5080   58.4080   18.0650 N.am  134  GLN134     -0.0878
     60  N         22.3840   57.3980   13.7160 N.3   136  GLU136     -0.1245
     61  CA        23.2820   58.4860   14.0720 C.3   136  GLU136      0.1567
     62  C         24.3890   58.5880   13.0490 C.2   136  GLU136      0.2260
     63  O         24.6730   57.6360   12.3280 O.2   136  GLU136     -0.2867
     64  CB        23.9380   58.2360   15.4220 C.3   136  GLU136      0.0388
     65  CG        23.0490   58.4080   16.6080 C.3   136  GLU136      0.1160
     66  CD        22.9250   59.8430   17.0450 C.2   136  GLU136      0.3649
     67  OE1       23.9520   60.5600   17.0070 O.co2 136  GLU136     -0.2457
     68  OE2       21.7990   60.2360   17.4440 O.co2 136  GLU136     -0.2457
     69  N         20.2360   71.3030   21.0650 N.3   174  PHE174     -0.1241
     70  CA        20.6530   69.9870   21.5380 C.3   174  PHE174      0.1605
     71  C         21.8440   70.2590   22.4560 C.2   174  PHE174      0.2264
     72  O         22.7570   71.0030   22.0910 O.2   174  PHE174     -0.2867
     73  CB        21.0710   69.0960   20.3670 C.3   174  PHE174      0.0534
     74  CG        19.9180   68.6500   19.4980 C.ar  174  PHE174     -0.0203
     75  CD1       18.9530   67.7770   19.9930 C.ar  174  PHE174     -0.0042
     76  CD2       19.7860   69.1210   18.1910 C.ar  174  PHE174     -0.0042
     77  CE1       17.8750   67.3830   19.1960 C.ar  174  PHE174     -0.0003
     78  CE2       18.7070   68.7300   17.3920 C.ar  174  PHE174     -0.0003
     79  CZ        17.7540   67.8610   17.8950 C.ar  174  PHE174     -0.0000
     80  N         24.3420   68.4300   23.1900 N.3   176  PHE176     -0.1227
     81  CA        25.5780   67.8640   22.6580 C.3   176  PHE176      0.1736
     82  C         26.1380   68.4700   21.3630 C.2   176  PHE176      0.2595
     83  O         27.0940   67.9270   20.7890 O.2   176  PHE176     -0.2718
     84  CB        25.4600   66.3410   22.4970 C.3   176  PHE176      0.0547
     85  CG        24.0980   65.8690   22.0900 C.ar  176  PHE176     -0.0202
     86  CD1       23.0480   65.8450   23.0090 C.ar  176  PHE176     -0.0042
     87  CD2       23.8550   65.4360   20.7900 C.ar  176  PHE176     -0.0042
     88  CE1       21.7750   65.3920   22.6370 C.ar  176  PHE176     -0.0003
     89  CE2       22.5810   64.9800   20.4090 C.ar  176  PHE176     -0.0003
     90  CZ        21.5470   64.9600   21.3400 C.ar  176  PHE176     -0.0000
     91  N         25.5550   69.5780   20.8970 N.am  177  VAL177     -0.1980
     92  CA        26.0680   70.2620   19.7060 C.3   177  VAL177      0.1595
     93  C         25.9300   71.7670   19.7870 C.2   177  VAL177      0.2287
     94  O         25.0610   72.2960   20.4820 O.2   177  VAL177     -0.2864
     95  CB        25.4060   69.7980   18.3910 C.3   177  VAL177      0.0276
     96  CG1       25.9230   68.4390   18.0350 C.3   177  VAL177      0.0022
     97  CG2       23.8970   69.8030   18.5110 C.3   177  VAL177      0.0022
     98  N         17.9870   66.0140   13.5110 N.3   198  GLY198     -0.1210
     99  CA        18.7250   67.1450   14.0340 C.3   198  GLY198      0.1956
    100  C         20.1920   66.8770   13.7920 C.2   198  GLY198      0.2611
    101  O         20.5530   65.7510   13.4510 O.2   198  GLY198     -0.2717
    102  N         21.0310   67.8950   13.9690 N.am  199  ALA199     -0.1979
    103  CA        22.4670   67.7630   13.7530 C.3   199  ALA199      0.1597
    104  C         23.1880   68.9610   14.3500 C.2   199  ALA199      0.2287
    105  O         22.5990   69.7330   15.0960 O.2   199  ALA199     -0.2864
    106  CB        22.7690   67.6630   12.2570 C.3   199  ALA199      0.0319
    107  N         27.8250   65.7730   13.8930 N.3   230  ALA230     -0.1231
    108  CA        27.0540   64.5630   14.1080 C.3   230  ALA230      0.1694
    109  C         25.6460   64.9060   13.6700 C.2   230  ALA230      0.2592
    110  O         25.3100   66.0860   13.4950 O.2   230  ALA230     -0.2718
    111  CB        27.0630   64.1670   15.5930 C.3   230  ALA230      0.0304
    112  N         24.8330   63.8770   13.4770 N.am  231  PHE231     -0.1962
    113  CA        23.4440   64.0650   13.1000 C.3   231  PHE231      0.1771
    114  C         22.6910   62.8210   13.5210 C.2   231  PHE231      0.2620
    115  O         23.2990   61.8080   13.8490 O.2   231  PHE231     -0.2715
    116  CB        23.3120   64.3020   11.5930 C.3   231  PHE231      0.0574
    117  CG        23.8200   63.1750   10.7460 C.ar  231  PHE231     -0.0200
    118  CD1       23.1990   61.9280   10.7650 C.ar  231  PHE231     -0.0042
    119  CD2       24.9130   63.3650    9.9050 C.ar  231  PHE231     -0.0042
    120  CE1       23.6590   60.8910    9.9600 C.ar  231  PHE231     -0.0003
    121  CE2       25.3770   62.3280    9.0960 C.ar  231  PHE231     -0.0003
    122  CZ        24.7470   61.0900    9.1260 C.ar  231  PHE231     -0.0000
    123  N         21.3680   62.9040   13.5310 N.am  232  GLY232     -0.1954
    124  CA        20.5550   61.7580   13.9070 C.3   232  GLY232      0.1869
    125  C         19.1900   61.8420   13.2540 C.2   232  GLY232      0.2309
    126  O         18.5660   62.9150   13.2470 O.2   232  GLY232     -0.2863
@<TRIPOS>BOND
     1   121   122   ar
     2   121   119   ar
     3   122   120   ar
     4   119   117   ar
     5   120   118   ar
     6   117   118   ar
     7   117   116    1
     8   116   113    1
     9   106   103    1
    10    63    62    2
    11    62    61    1
    12   113   112    1
    13   113   114    1
    14   126   125    2
    15   125   124    1
    16   101   100    2
    17   112   109   am
    18   110   109    2
    19    98    99    1
    20   114   123   am
    21   114   115    2
    22   123   124    1
    23   109   108    1
    24    60    61    1
    25   103   102    1
    26   103   104    1
    27   100   102   am
    28   100    99    1
    29   107   108    1
    30    54    53    2
    31    53    52    1
    32    61    64    1
    33   108   111    1
    34   104   105    2
    35    52    51    1
    36    52    55    1
    37    64    65    1
    38    55    56    1
    39    65    66    1
    40    56    57    1
    41    67    66   ar
    42    66    68   ar
    43    78    79   ar
    44    78    76   ar
    45    57    59   am
    46    57    58    2
    47    79    77   ar
    48    96    95    1
    49    39    37   am
    50    76    74   ar
    51    95    97    1
    52    95    92    1
    53    35    32    1
    54    35    36    1
    55    37    38    2
    56    37    36    1
    57    77    75   ar
    58    74    75   ar
    59    74    73    1
    60    32    31    1
    61    32    33    1
    62    92    93    1
    63    92    91    1
    64    93    94    2
    65    30    29    1
    66    25    26    1
    67    73    70    1
    68    34    33    2
    69    89    87   ar
    70    89    90   ar
    71    26    29    1
    72    26    27    1
    73    50    48    1
    74    83    82    2
    75    87    85   ar
    76    91    82   am
    77    69    70    1
    78    17    16    1
    79    17    18    2
    80    19    16    1
    81    19    20    1
    82    28    27    2
    83    16    15    1
    84    90    88   ar
    85    82    81    1
    86    49    48    1
    87    48    47    2
    88    70    71    1
    89    85    84    1
    90    85    86   ar
    91    72    71    2
    92    47    46    1
    93    21    20   ar
    94    21    23   ar
    95    20    22   ar
    96    84    81    1
    97    88    86   ar
    98    81    80    1
    99     9    10   ar
   100     9     7   ar
   101    46    45    1
   102    12    10   ar
   103    12    14   ar
   104    23    24   ar
   105    22    24   ar
   106    45    44    1
   107    10     8   ar
   108     7     6   ar
   109    44    41    1
   110    14    13   ar
   111    40    41    1
   112     8     6   ar
   113     8    11   ar
   114    43    42    2
   115     6     5    1
   116    41    42    1
   117    13    11   ar
   118     5     2    1
   119     2     1    1
   120     2     3    1
   121     3     4    2
