@<TRIPOS>MOLECULE
tmp/2al4A01.pdb
 143 138 0 0 0
SMALL
GASTEIGER

@<TRIPOS>ATOM
      1  N         53.3360  -12.7050   23.7870 N.3    58  TYR58      -0.1241
      2  CA        51.9250  -12.7590   24.1390 C.3    58  TYR58       0.1605
      3  C         51.6970  -13.5010   25.4450 C.2    58  TYR58       0.2264
      4  O         51.0490  -12.9840   26.3550 O.2    58  TYR58      -0.2867
      5  CB        51.1200  -13.4030   23.0100 C.3    58  TYR58       0.0534
      6  CG        50.8890  -12.4580   21.8550 C.ar   58  TYR58      -0.0201
      7  CD1       51.8580  -12.2740   20.8680 C.ar   58  TYR58      -0.0009
      8  CD2       49.7110  -11.7150   21.7730 C.ar   58  TYR58      -0.0009
      9  CE1       51.6580  -11.3660   19.8220 C.ar   58  TYR58       0.0417
     10  CE2       49.5010  -10.8090   20.7380 C.ar   58  TYR58       0.0417
     11  CZ        50.4740  -10.6380   19.7680 C.ar   58  TYR58       0.1957
     12  OH        50.2620   -9.7330   18.7520 O.3    58  TYR58      -0.2866
     13  N         45.7410   -7.7830   21.2820 N.3    86  PRO86      -0.2102
     14  CA        45.1580   -8.8960   20.5250 C.3    86  PRO86       0.1504
     15  C         45.5460  -10.2080   21.2080 C.2    86  PRO86       0.2576
     16  O         46.2690  -11.0320   20.6430 O.2    86  PRO86      -0.2718
     17  CB        45.7840   -8.7390   19.1390 C.3    86  PRO86       0.0282
     18  CG        47.1250   -8.1160   19.4460 C.3    86  PRO86       0.0208
     19  CD        46.7580   -7.0780   20.4790 C.3    86  PRO86       0.0893
     20  N         45.0660  -10.3750   22.4390 N.am   87  LEU87      -0.1966
     21  CA        45.3550  -11.5640   23.2360 C.3    87  LEU87       0.1728
     22  C         44.2410  -12.5880   23.0510 C.2    87  LEU87       0.2616
     23  O         43.0950  -12.3540   23.4220 O.2    87  LEU87      -0.2715
     24  CB        45.4800  -11.1880   24.7170 C.3    87  LEU87       0.0311
     25  CG        45.9740  -12.2860   25.6610 C.3    87  LEU87       0.0022
     26  CD1       47.4040  -12.6870   25.2860 C.3    87  LEU87       0.0001
     27  CD2       45.9280  -11.7750   27.0980 C.3    87  LEU87       0.0001
     28  N         44.5930  -13.7310   22.4780 N.am   88  THR88      -0.1951
     29  CA        43.6240  -14.7820   22.2120 C.3    88  THR88       0.1897
     30  C         43.1170  -15.5090   23.4490 C.2    88  THR88       0.2313
     31  O         43.8880  -15.9030   24.3160 O.2    88  THR88      -0.2863
     32  CB        44.2210  -15.8020   21.2370 C.3    88  THR88       0.1794
     33  OG1       44.6960  -15.1000   20.0810 O.3    88  THR88      -0.2208
     34  CG2       43.1730  -16.8280   20.8110 C.3    88  THR88       0.0378
     35  N         44.9350  -20.3680   29.2380 N.3    93  ARG93      -0.1245
     36  CA        45.0620  -19.0240   29.7880 C.3    93  ARG93       0.1563
     37  C         43.8980  -18.6820   30.7150 C.2    93  ARG93       0.2260
     38  O         44.0940  -18.0580   31.7590 O.2    93  ARG93      -0.2867
     39  CB        45.1440  -17.9950   28.6600 C.3    93  ARG93       0.0307
     40  CG        46.4560  -18.0280   27.9030 C.3    93  ARG93       0.0489
     41  CD        46.3840  -17.1520   26.6640 C.3    93  ARG93       0.2205
     42  NE        47.6670  -17.0500   25.9780 N.pl3  93  ARG93      -0.0865
     43  CZ        47.8310  -16.4660   24.7960 C.cat  93  ARG93       0.5346
     44  NH1       46.7870  -15.9390   24.1660 N.pl3  93  ARG93       0.1354
     45  NH2       49.0380  -16.3900   24.2520 N.pl3  93  ARG93       0.1354
     46  N         54.2830  -17.9550   14.7540 N.3   135  LEU135     -0.1245
     47  CA        54.9370  -17.0980   15.7380 C.3   135  LEU135      0.1561
     48  C         55.4900  -18.1010   16.7510 C.2   135  LEU135      0.2260
     49  O         54.7540  -18.9550   17.2490 O.2   135  LEU135     -0.2867
     50  CB        53.9140  -16.1670   16.3980 C.3   135  LEU135      0.0270
     51  CG        54.4250  -15.1090   17.3840 C.3   135  LEU135      0.0019
     52  CD1       55.3470  -14.1150   16.6720 C.3   135  LEU135      0.0001
     53  CD2       53.2330  -14.3810   17.9880 C.3   135  LEU135      0.0001
     54  N         52.9890  -18.3500   21.2000 N.3   138  GLY138     -0.1210
     55  CA        51.6450  -17.8100   21.0890 C.3   138  GLY138      0.1956
     56  C         50.5830  -18.8820   20.9510 C.2   138  GLY138      0.2613
     57  O         50.8820  -20.0740   21.0040 O.2   138  GLY138     -0.2717
     58  N         49.3390  -18.4540   20.7560 N.am  139  SER139     -0.1938
     59  CA        48.2170  -19.3730   20.6330 C.3   139  SER139      0.2055
     60  C         48.2370  -20.2030   19.3550 C.2   139  SER139      0.2644
     61  O         47.7240  -21.3250   19.3320 O.2   139  SER139     -0.2714
     62  CB        46.9000  -18.5950   20.7190 C.3   139  SER139      0.2130
     63  OG        46.8290  -17.6130   19.7010 O.3   139  SER139     -0.2179
     64  N         48.8210  -19.6580   18.2910 N.am  140  THR140     -0.1936
     65  CA        48.8840  -20.3730   17.0260 C.3   140  THR140      0.2028
     66  C         49.8130  -21.5810   17.1360 C.2   140  THR140      0.2642
     67  O         49.4490  -22.6860   16.7330 O.2   140  THR140     -0.2714
     68  CB        49.3590  -19.4480   15.8920 C.3   140  THR140      0.1808
     69  OG1       48.4010  -18.3930   15.7150 O.3   140  THR140     -0.2208
     70  CG2       49.4930  -20.2260   14.5810 C.3   140  THR140      0.0379
     71  N         51.0010  -21.3800   17.6970 N.am  141  LYS141     -0.1977
     72  CA        51.9330  -22.4930   17.8420 C.3   141  LYS141      0.1596
     73  C         51.2790  -23.5870   18.6820 C.2   141  LYS141      0.2287
     74  O         51.3660  -24.7690   18.3530 O.2   141  LYS141     -0.2864
     75  CB        53.2350  -22.0310   18.5030 C.3   141  LYS141      0.0298
     76  CG        54.3480  -23.0800   18.4470 C.3   141  LYS141      0.0038
     77  CD        55.6500  -22.5160   18.9770 C.3   141  LYS141      0.0206
     78  CE        56.8020  -23.4960   18.8240 C.3   141  LYS141      0.1093
     79  NZ        58.0740  -22.8790   19.3000 N.3   141  LYS141     -0.1314
     80  N         55.4380  -11.0320   14.5590 N.3   171  THR171     -0.1218
     81  CA        54.6460  -11.0880   13.3380 C.3   171  THR171      0.1862
     82  C         55.4050  -10.4020   12.2040 C.2   171  THR171      0.2287
     83  O         55.4300  -10.8940   11.0800 O.2   171  THR171     -0.2866
     84  CB        53.2870  -10.3860   13.5320 C.3   171  THR171      0.1770
     85  OG1       52.5910  -10.9950   14.6270 O.3   171  THR171     -0.2211
     86  CG2       52.4400  -10.5050   12.2670 C.3   171  THR171      0.0375
     87  N         53.3390  -18.1310    5.8570 N.3   187  TYR187     -0.1227
     88  CA        53.2480  -17.8660    7.2860 C.3   187  TYR187      0.1736
     89  C         51.8440  -18.0960    7.8350 C.2   187  TYR187      0.2595
     90  O         50.8590  -17.6230    7.2680 O.2   187  TYR187     -0.2718
     91  CB        53.7100  -16.4240    7.5530 C.3   187  TYR187      0.0548
     92  CG        53.8120  -16.0190    9.0100 C.ar  187  TYR187     -0.0200
     93  CD1       54.5180  -16.7980    9.9290 C.ar  187  TYR187     -0.0009
     94  CD2       53.2180  -14.8410    9.4640 C.ar  187  TYR187     -0.0009
     95  CE1       54.6260  -16.4100   11.2770 C.ar  187  TYR187      0.0417
     96  CE2       53.3240  -14.4460   10.8030 C.ar  187  TYR187      0.0417
     97  CZ        54.0260  -15.2350   11.7000 C.ar  187  TYR187      0.1957
     98  OH        54.1200  -14.8460   13.0180 O.3   187  TYR187     -0.2866
     99  N         51.7650  -18.8390    8.9350 N.am  188  LEU188     -0.1966
    100  CA        50.4930  -19.1210    9.5900 C.3   188  LEU188      0.1728
    101  C         50.3150  -18.1080   10.7100 C.2   188  LEU188      0.2616
    102  O         51.1190  -18.0590   11.6430 O.2   188  LEU188     -0.2715
    103  CB        50.4980  -20.5440   10.1600 C.3   188  LEU188      0.0311
    104  CG        50.4970  -21.6490    9.0980 C.3   188  LEU188      0.0022
    105  CD1       51.0440  -22.9430    9.6880 C.3   188  LEU188      0.0001
    106  CD2       49.0790  -21.8440    8.5680 C.3   188  LEU188      0.0001
    107  N         49.2660  -17.2950   10.6150 N.am  189  LEU189     -0.1963
    108  CA        49.0140  -16.2660   11.6140 C.3   189  LEU189      0.1728
    109  C         47.5230  -15.9660   11.6840 C.2   189  LEU189      0.2616
    110  O         46.7440  -16.4050   10.8340 O.2   189  LEU189     -0.2715
    111  CB        49.7810  -14.9830   11.2600 C.3   189  LEU189      0.0311
    112  CG        49.1960  -14.0760   10.1720 C.3   189  LEU189      0.0022
    113  CD1       50.0470  -12.8260   10.0560 C.3   189  LEU189      0.0001
    114  CD2       49.1400  -14.8130    8.8340 C.3   189  LEU189      0.0001
    115  N         47.1190  -15.2080   12.6920 N.am  190  GLU190     -0.1977
    116  CA        45.7070  -14.8930   12.8440 C.3   190  GLU190      0.1602
    117  C         45.1840  -14.0270   11.6970 C.2   190  GLU190      0.2287
    118  O         45.8790  -13.1350   11.2030 O.2   190  GLU190     -0.2864
    119  CB        45.4830  -14.2680   14.2260 C.3   190  GLU190      0.0415
    120  CG        45.8360  -15.2970   15.2910 C.3   190  GLU190      0.1163
    121  CD        45.8960  -14.7590   16.7030 C.2   190  GLU190      0.3649
    122  OE1       46.1080  -13.5410   16.8860 O.co2 190  GLU190     -0.2457
    123  OE2       45.7530  -15.5780   17.6340 O.co2 190  GLU190     -0.2457
    124  N         45.6890  -10.1200   11.6620 N.3   193  MET193     -0.1245
    125  CA        46.9650   -9.5710   11.2340 C.3   193  MET193      0.1570
    126  C         47.1280   -9.7810    9.7310 C.2   193  MET193      0.2261
    127  O         47.6070   -8.9000    9.0240 O.2   193  MET193     -0.2867
    128  CB        48.1270  -10.2480   11.9680 C.3   193  MET193      0.0387
    129  CG        48.3110   -9.7910   13.4090 C.3   193  MET193      0.0595
    130  SD        47.0650  -10.4320   14.5360 S.3   193  MET193     -0.1393
    131  CE        48.0460  -10.6120   16.0760 C.3   193  MET193      0.0692
    132  N         39.6490  -12.3640   20.6320 N.3   217  TYR217     -0.1241
    133  CA        40.5540  -11.6800   21.5440 C.3   217  TYR217      0.1605
    134  C         39.6940  -11.1620   22.6830 C.2   217  TYR217      0.2264
    135  O         38.5440  -10.7540   22.4770 O.2   217  TYR217     -0.2867
    136  CB        41.2270  -10.4720   20.8870 C.3   217  TYR217      0.0534
    137  CG        42.0930  -10.7660   19.6810 C.ar  217  TYR217     -0.0201
    138  CD1       42.9140  -11.8950   19.6350 C.ar  217  TYR217     -0.0009
    139  CD2       42.1390   -9.8720   18.6120 C.ar  217  TYR217     -0.0009
    140  CE1       43.7630  -12.1230   18.5510 C.ar  217  TYR217      0.0417
    141  CE2       42.9870  -10.0870   17.5240 C.ar  217  TYR217      0.0417
    142  CZ        43.7940  -11.2140   17.5040 C.ar  217  TYR217      0.1957
    143  OH        44.6340  -11.4280   16.4400 O.3   217  TYR217     -0.2866
@<TRIPOS>BOND
     1    87    88    1
     2    90    89    2
     3    88    91    1
     4    88    89    1
     5    91    92    1
     6    89    99   am
     7   106   104    1
     8   114   112    1
     9    99   100    1
    10    92    94   ar
    11    92    93   ar
    12   127   126    2
    13   104   105    1
    14   104   103    1
    15    94    96   ar
    16   100   103    1
    17   100   101    1
    18   126   125    1
    19    93    95   ar
    20   113   112    1
    21   112   111    1
    22   107   101   am
    23   107   108    1
    24   101   102    2
    25    96    97   ar
    26   110   109    2
    27    83    82    2
    28   118   117    2
    29   125   124    1
    30   125   128    1
    31   111   108    1
    32    95    97   ar
    33   108   109    1
    34   109   115   am
    35   117   116    1
    36    97    98    1
    37   128   129    1
    38    82    81    1
    39    86    84    1
    40   115   116    1
    41   116   119    1
    42    81    84    1
    43    81    80    1
    44   129   130    1
    45    84    85    1
    46   119   120    1
    47   130   131    1
    48    70    68    1
    49    46    47    1
    50   120   121    1
    51    69    68    1
    52    47    50    1
    53    47    48    1
    54    68    65    1
    55    50    51    1
    56   143   142    1
    57    52    51    1
    58   121   122   ar
    59   121   123   ar
    60    67    66    2
    61    48    49    2
    62    65    66    1
    63    65    64    1
    64    66    71   am
    65    51    53    1
    66   142   141   ar
    67   142   140   ar
    68   141   139   ar
    69    71    72    1
    70    72    75    1
    71    72    73    1
    72    64    60   am
    73    74    73    2
    74    76    75    1
    75    76    77    1
    76   140   138   ar
    77   139   137   ar
    78    12    11    1
    79    78    77    1
    80    78    79    1
    81    17    18    1
    82    17    14    1
    83    61    60    2
    84    60    59    1
    85    18    19    1
    86   138   137   ar
    87   137   136    1
    88    63    62    1
    89    11     9   ar
    90    11    10   ar
    91     9     7   ar
    92    33    32    1
    93    19    13    1
    94    14    15    1
    95    14    13    1
    96   132   133    1
    97    59    62    1
    98    59    58    1
    99    16    15    2
   100    10     8   ar
   101    58    56   am
   102    34    32    1
   103     7     6   ar
   104   136   133    1
   105    56    57    2
   106    56    55    1
   107    55    54    1
   108    15    20   am
   109    32    29    1
   110   133   134    1
   111     8     6   ar
   112     6     5    1
   113    29    28    1
   114    29    30    1
   115    20    21    1
   116   135   134    2
   117    28    22   am
   118     5     2    1
   119    22    21    1
   120    22    23    2
   121    21    24    1
   122    30    31    2
   123     1     2    1
   124     2     3    1
   125    44    43    1
   126    45    43    1
   127    24    25    1
   128    43    42    2
   129    26    25    1
   130     3     4    2
   131    25    27    1
   132    42    41    1
   133    41    40    1
   134    40    39    1
   135    39    36    1
   136    35    36    1
   137    36    37    1
   138    37    38    2
