@<TRIPOS>MOLECULE
tmp/2al5A01.pdb
 84 82 0 0 0
SMALL
GASTEIGER

@<TRIPOS>ATOM
      1  N         11.0980   77.3490   30.7030 N.3   102  LYS102     -0.1231
      2  CA        12.2820   77.8330   30.0150 C.3   102  LYS102      0.1678
      3  C         13.4100   77.0230   30.6640 C.2   102  LYS102      0.2434
      4  O         13.2960   76.5910   31.8150 O.2   102  LYS102     -0.2733
      5  CB        12.4710   79.3330   30.2520 C.3   102  LYS102      0.0284
      6  CG        11.4740   80.2160   29.5040 C.3   102  LYS102      0.0035
      7  CD        11.5870   80.0340   27.9970 C.3   102  LYS102      0.0206
      8  CE        10.7070   81.0220   27.2340 C.3   102  LYS102      0.1093
      9  NZ         9.2610   80.8740   27.5300 N.3   102  LYS102     -0.1314
     10  N         14.5140   76.8020   29.9420 N.am  103  PRO103     -0.2718
     11  CA        15.6170   76.0180   30.5100 C.3   103  PRO103      0.1535
     12  C         16.2390   76.5330   31.8070 C.2   103  PRO103      0.2599
     13  O         16.4210   77.7400   31.9890 O.2   103  PRO103     -0.2715
     14  CB        16.6180   75.9370   29.3540 C.3   103  PRO103      0.0310
     15  CG        16.3110   77.1640   28.5370 C.3   103  PRO103      0.0237
     16  CD        14.8250   77.2870   28.5850 C.3   103  PRO103      0.0939
     17  N         16.5470   75.6080   32.7140 N.am  104  PHE104     -0.1960
     18  CA        17.1700   75.9740   33.9830 C.3   104  PHE104      0.1771
     19  C         18.6660   75.6610   33.9670 C.2   104  PHE104      0.2619
     20  O         19.3960   76.0330   34.8900 O.2   104  PHE104     -0.2715
     21  CB        16.4800   75.2680   35.1730 C.3   104  PHE104      0.0574
     22  CG        16.5910   73.7580   35.1630 C.ar  104  PHE104     -0.0200
     23  CD1       17.7600   73.1230   35.5720 C.ar  104  PHE104     -0.0042
     24  CD2       15.5070   72.9720   34.7720 C.ar  104  PHE104     -0.0042
     25  CE1       17.8500   71.7320   35.5970 C.ar  104  PHE104     -0.0003
     26  CE2       15.5850   71.5790   34.7910 C.ar  104  PHE104     -0.0003
     27  CZ        16.7560   70.9550   35.2050 C.ar  104  PHE104     -0.0000
     28  N         19.1210   74.9900   32.9120 N.am  105  MET105     -0.1963
     29  CA        20.5330   74.6410   32.7710 C.3   105  MET105      0.1736
     30  C         20.8800   74.4170   31.3030 C.2   105  MET105      0.2617
     31  O         20.0810   73.8610   30.5460 O.2   105  MET105     -0.2715
     32  CB        20.8550   73.3720   33.5740 C.3   105  MET105      0.0427
     33  CG        22.3460   73.0670   33.6810 C.3   105  MET105      0.0599
     34  SD        22.7120   71.5780   34.6480 S.3   105  MET105     -0.1393
     35  CE        22.3680   72.1650   36.2870 C.3   105  MET105      0.0692
     36  N         22.0700   74.8560   30.9030 N.am  106  SER106     -0.1950
     37  CA        22.5290   74.6900   29.5270 C.3   106  SER106      0.1924
     38  C         23.3990   73.4410   29.4120 C.2   106  SER106      0.2314
     39  O         24.0060   73.0000   30.3870 O.2   106  SER106     -0.2863
     40  CB        23.3530   75.9030   29.0930 C.3   106  SER106      0.2116
     41  OG        24.5280   76.0110   29.8790 O.3   106  SER106     -0.2180
     42  N         23.8340   72.6580   21.2940 N.3   215  SER215     -0.1202
     43  CA        23.5740   73.5530   22.4080 C.3   215  SER215      0.2020
     44  C         22.0880   73.5130   22.7000 C.2   215  SER215      0.2619
     45  O         21.2710   73.8440   21.8420 O.2   215  SER215     -0.2717
     46  CB        24.0010   74.9760   22.0500 C.3   215  SER215      0.2103
     47  OG        23.8360   75.8400   23.1620 O.3   215  SER215     -0.2182
     48  N         21.7430   73.1110   23.9160 N.am  216  LYS216     -0.1965
     49  CA        20.3460   72.9990   24.3040 C.3   216  LYS216      0.1728
     50  C         20.1870   73.1670   25.8100 C.2   216  LYS216      0.2616
     51  O         21.0890   73.6670   26.4790 O.2   216  LYS216     -0.2715
     52  CB        19.8080   71.6410   23.8460 C.3   216  LYS216      0.0311
     53  CG        20.6480   70.4530   24.3020 C.3   216  LYS216      0.0038
     54  CD        20.4000   69.2280   23.4160 C.3   216  LYS216      0.0206
     55  CE        21.3080   68.0630   23.8080 C.3   216  LYS216      0.1093
     56  NZ        21.1820   66.9230   22.8580 N.3   216  LYS216     -0.1314
     57  N         19.0440   72.7560   26.3490 N.am  217  GLY217     -0.1955
     58  CA        18.8510   72.9080   27.7780 C.3   217  GLY217      0.1869
     59  C         17.8910   71.9300   28.4190 C.2   217  GLY217      0.2309
     60  O         17.1530   71.2220   27.7250 O.2   217  GLY217     -0.2863
     61  N         16.8060   82.0520   38.1480 N.3   240  ASN240     -0.1240
     62  CA        17.9800   82.3080   37.3360 C.3   240  ASN240      0.1653
     63  C         18.4480   83.7390   37.5570 C.2   240  ASN240      0.2266
     64  O         19.6330   83.9860   37.7780 O.2   240  ASN240     -0.2867
     65  CB        17.6820   82.0810   35.8530 C.3   240  ASN240      0.1155
     66  CG        18.9430   82.0830   35.0120 C.2   240  ASN240      0.2627
     67  OD1       20.0130   81.6810   35.4810 O.2   240  ASN240     -0.2716
     68  ND2       18.8270   82.5170   33.7650 N.am  240  ASN240     -0.0877
     69  N         20.3710   79.5280   40.4810 N.3   245  LEU245     -0.1231
     70  CA        20.7180   78.3780   39.6550 C.3   245  LEU245      0.1693
     71  C         22.2370   78.2510   39.5140 C.2   245  LEU245      0.2592
     72  O         22.7730   77.1430   39.5310 O.2   245  LEU245     -0.2718
     73  CB        20.0600   78.4890   38.2740 C.3   245  LEU245      0.0284
     74  CG        18.5220   78.5480   38.2750 C.3   245  LEU245      0.0019
     75  CD1       18.0190   78.5580   36.8340 C.3   245  LEU245      0.0001
     76  CD2       17.9390   77.3500   39.0200 C.3   245  LEU245      0.0001
     77  N         22.9310   79.3770   39.3780 N.am  246  ASP246     -0.1974
     78  CA        24.3870   79.3390   39.2570 C.3   246  ASP246      0.1709
     79  C         24.9900   78.8570   40.5720 C.2   246  ASP246      0.2293
     80  O         25.9620   78.0990   40.5860 O.2   246  ASP246     -0.2864
     81  CB        24.9430   80.7230   38.9160 C.3   246  ASP246      0.1436
     82  CG        24.5280   81.1950   37.5320 C.2   246  ASP246      0.3671
     83  OD1       24.5390   80.3690   36.5970 O.co2 246  ASP246     -0.2456
     84  OD2       24.2040   82.3920   37.3780 O.co2 246  ASP246     -0.2456
@<TRIPOS>BOND
     1    42    43    1
     2    45    44    2
     3    46    43    1
     4    46    47    1
     5    43    44    1
     6    44    48   am
     7    56    55    1
     8    54    55    1
     9    54    53    1
    10    52    53    1
    11    52    49    1
    12    48    49    1
    13    49    50    1
    14    50    57   am
    15    50    51    2
    16    57    58    1
    17     8     9    1
    18     8     7    1
    19    60    59    2
    20    58    59    1
    21     7     6    1
    22    15    16    1
    23    15    14    1
    24    16    10    1
    25    40    37    1
    26    40    41    1
    27    14    11    1
    28    38    37    1
    29    38    39    2
    30     6     5    1
    31    37    36    1
    32    10    11    1
    33    10     3   am
    34     2     5    1
    35     2     3    1
    36     2     1    1
    37    11    12    1
    38    31    30    2
    39     3     4    2
    40    36    30   am
    41    30    29    1
    42    12    13    2
    43    12    17   am
    44    17    18    1
    45    29    28    1
    46    29    32    1
    47    28    19   am
    48    32    33    1
    49    33    34    1
    50    68    66   am
    51    19    18    1
    52    19    20    2
    53    18    21    1
    54    34    35    1
    55    24    26   ar
    56    24    22   ar
    57    26    27   ar
    58    66    67    2
    59    66    65    1
    60    22    21    1
    61    22    23   ar
    62    27    25   ar
    63    23    25   ar
    64    65    62    1
    65    83    82   ar
    66    75    74    1
    67    62    63    1
    68    62    61    1
    69    84    82   ar
    70    82    81    1
    71    63    64    2
    72    73    74    1
    73    73    70    1
    74    74    76    1
    75    81    78    1
    76    78    77    1
    77    78    79    1
    78    77    71   am
    79    71    72    2
    80    71    70    1
    81    70    69    1
    82    79    80    2
