@<TRIPOS>MOLECULE
tmp/2aluA03.pdb
 132 131 0 0 0
SMALL
GASTEIGER

@<TRIPOS>ATOM
      1  N         18.3940   19.3600    1.2000 N.3    79  HIS79      -0.1241
      2  CA        19.3250   19.8690    2.2090 C.3    79  HIS79       0.1621
      3  C         20.7470   19.5100    1.8160 C.2    79  HIS79       0.2264
      4  O         21.6190   19.3290    2.6660 O.2    79  HIS79      -0.2867
      5  CB        19.0000   19.3040    3.5950 C.3    79  HIS79       0.0745
      6  CG        18.2570   20.2590    4.4760 C.ar   79  HIS79       0.0817
      7  ND1       17.4540   19.8420    5.5180 N.ar   79  HIS79      -0.2268
      8  CD2       18.2050   21.6130    4.4780 C.ar   79  HIS79       0.1154
      9  CE1       16.9370   20.8990    6.1220 C.ar   79  HIS79       0.1986
     10  NE2       17.3770   21.9860    5.5100 N.ar   79  HIS79      -0.2212
     11  N         20.3310   18.8920    9.4210 N.3    88  PRO88      -0.2102
     12  CA        19.1260   18.4280   10.1180 C.3    88  PRO88       0.1504
     13  C         18.7770   16.9540    9.8860 C.2    88  PRO88       0.2576
     14  O         19.0330   16.4560    8.8010 O.2    88  PRO88      -0.2718
     15  CB        18.0570   19.3810    9.5920 C.3    88  PRO88       0.0282
     16  CG        18.8210   20.6670    9.2970 C.3    88  PRO88       0.0208
     17  CD        20.2320   20.2990    8.9910 C.3    88  PRO88       0.0893
     18  N         18.2710   16.2600   10.9140 N.am   89  THR89      -0.1939
     19  CA        17.8650   14.8600   10.7530 C.3    89  THR89       0.2028
     20  C         16.4780   14.8100   10.1460 C.2    89  THR89       0.2642
     21  O         15.6580   15.7180   10.3390 O.2    89  THR89      -0.2714
     22  CB        17.8800   14.0630   12.0740 C.3    89  THR89       0.1808
     23  OG1       17.0350   14.7060   13.0550 O.3    89  THR89      -0.2208
     24  CG2       19.2450   14.0970   12.6760 C.3    89  THR89       0.0379
     25  N         16.2050   13.7440    9.4100 N.am   90  GLU90      -0.1963
     26  CA        14.9090   13.6650    8.7480 C.3    90  GLU90       0.1733
     27  C         13.8980   12.6610    9.3110 C.2    90  GLU90       0.2616
     28  O         12.6910   12.8350    9.1620 O.2    90  GLU90      -0.2715
     29  CB        15.1360   13.4660    7.2670 C.3    90  GLU90       0.0429
     30  CG        15.7820   14.6920    6.6300 C.3    90  GLU90       0.1163
     31  CD        15.8990   14.5430    5.1300 C.2    90  GLU90       0.3649
     32  OE1       14.8450   14.3420    4.4680 O.co2  90  GLU90      -0.2457
     33  OE2       17.0490   14.6030    4.6330 O.co2  90  GLU90      -0.2457
     34  N         14.3560   11.6330    9.9900 N.am   91  GLY91      -0.1955
     35  CA        13.4000   10.6650   10.5050 C.3    91  GLY91       0.1869
     36  C         13.2330    9.5220    9.5180 C.2    91  GLY91       0.2309
     37  O         13.4180    9.6820    8.3020 O.2    91  GLY91      -0.2863
     38  N          6.5670    8.4400   10.9920 N.3   250  VAL250     -0.1231
     39  CA         7.9560    8.7970   10.8050 C.3   250  VAL250      0.1692
     40  C          8.6070    8.7150   12.1820 C.2   250  VAL250      0.2592
     41  O          8.1230    9.2380   13.1540 O.2   250  VAL250     -0.2718
     42  CB         8.1150   10.1820   10.1060 C.3   250  VAL250      0.0266
     43  CG1        6.7450   10.6730    9.6500 C.3   250  VAL250      0.0020
     44  CG2        8.7470   11.2160   11.0110 C.3   250  VAL250      0.0020
     45  N          9.6680    7.9450   12.2780 N.am  251  ALA251     -0.1966
     46  CA        10.3580    7.7790   13.5320 C.3   251  ALA251      0.1713
     47  C         11.5680    8.7440   13.6440 C.2   251  ALA251      0.2458
     48  O         12.2090    9.0310   12.6650 O.2   251  ALA251     -0.2730
     49  CB        10.8520    6.3430   13.6310 C.3   251  ALA251      0.0333
     50  N         11.9010    9.1650   14.8530 N.am  252  PRO252     -0.2716
     51  CA        13.1380    9.9310   15.1250 C.3   252  PRO252      0.1536
     52  C         14.4080    9.0360   14.9260 C.2   252  PRO252      0.2598
     53  O         14.4010    7.8680   15.3350 O.2   252  PRO252     -0.2715
     54  CB        13.0210   10.2560   16.6140 C.3   252  PRO252      0.0310
     55  CG        11.5860    9.9690   16.9660 C.3   252  PRO252      0.0237
     56  CD        11.1220    8.8630   16.0720 C.3   252  PRO252      0.0939
     57  N         15.4600    9.5390   14.2820 N.am  253  ASN253     -0.1973
     58  CA        16.6530    8.7230   14.0480 C.3   253  ASN253      0.1688
     59  C         17.2590    8.1300   15.3360 C.2   253  ASN253      0.2292
     60  O         17.0830    8.6820   16.4270 O.2   253  ASN253     -0.2864
     61  CB        17.7080    9.5590   13.3160 C.3   253  ASN253      0.1181
     62  CG        17.3490    9.7920   11.8210 C.2   253  ASN253      0.2629
     63  OD1       16.7550    8.9450   11.1680 O.2   253  ASN253     -0.2716
     64  ND2       17.7190   10.9320   11.3030 N.am  253  ASN253     -0.0877
     65  N         22.9710   18.0450   17.2640 N.3   310  LEU310     -0.1231
     66  CA        21.5240   18.2110   17.3590 C.3   310  LEU310      0.1693
     67  C         20.9230   19.6180   17.1170 C.2   310  LEU310      0.2592
     68  O         19.9330   19.7680   16.3910 O.2   310  LEU310     -0.2718
     69  CB        21.0010   17.6050   18.6790 C.3   310  LEU310      0.0284
     70  CG        21.2610   16.0940   18.7460 C.3   310  LEU310      0.0019
     71  CD1       20.6050   15.4420   19.9390 C.3   310  LEU310      0.0001
     72  CD2       20.7820   15.4450   17.4720 C.3   310  LEU310      0.0001
     73  N         21.4500   20.6450   17.7380 N.am  311  GLY311     -0.1957
     74  CA        20.8730   21.9500   17.4710 C.3   311  GLY311      0.1869
     75  C         19.6210   22.1750   18.2740 C.2   311  GLY311      0.2309
     76  O         18.5890   21.4750   18.1180 O.2   311  GLY311     -0.2863
     77  N         18.4240   19.8260   22.5770 N.3   314  PRO314     -0.2116
     78  CA        17.1130   19.3050   22.9890 C.3   314  PRO314      0.1372
     79  C         17.1880   18.3440   24.1720 C.2   314  PRO314      0.2244
     80  O         18.1460   17.5850   24.3330 O.2   314  PRO314     -0.2868
     81  CB        16.6340   18.5180   21.7600 C.3   314  PRO314      0.0268
     82  CG        17.6970   18.7320   20.6830 C.3   314  PRO314      0.0207
     83  CD        18.9390   19.2070   21.3500 C.3   314  PRO314      0.0892
     84  N         12.0820   16.6500   23.6030 N.3   318  GLU318     -0.1231
     85  CA        12.1690   17.5120   22.4440 C.3   318  GLU318      0.1699
     86  C         12.7460   16.7480   21.2630 C.2   318  GLU318      0.2592
     87  O         12.3140   16.9340   20.1250 O.2   318  GLU318     -0.2718
     88  CB        13.0340   18.7310   22.7160 C.3   318  GLU318      0.0402
     89  CG        12.4440   19.7950   23.6510 C.3   318  GLU318      0.1161
     90  CD        13.4300   20.9070   23.8950 C.2   318  GLU318      0.3649
     91  OE1       14.5970   20.6060   24.2480 O.co2 318  GLU318     -0.2457
     92  OE2       13.0670   22.0950   23.6690 O.co2 318  GLU318     -0.2457
     93  N         13.7060   15.8780   21.5370 N.am  319  TYR319     -0.1962
     94  CA        14.3380   15.1000   20.4760 C.3   319  TYR319      0.1771
     95  C         13.3430   14.1010   19.8420 C.2   319  TYR319      0.2619
     96  O         13.3440   13.9420   18.6470 O.2   319  TYR319     -0.2715
     97  CB        15.5900   14.3180   20.9700 C.3   319  TYR319      0.0574
     98  CG        16.1910   13.5130   19.8300 C.ar  319  TYR319     -0.0198
     99  CD1       17.0080   14.1180   18.9020 C.ar  319  TYR319     -0.0009
    100  CD2       15.8480   12.1790   19.6260 C.ar  319  TYR319     -0.0009
    101  CE1       17.5080   13.4250   17.8370 C.ar  319  TYR319      0.0417
    102  CE2       16.3310   11.4870   18.5810 C.ar  319  TYR319      0.0417
    103  CZ        17.1680   12.1070   17.6820 C.ar  319  TYR319      0.1957
    104  OH        17.6720   11.4110   16.6190 O.3   319  TYR319     -0.2866
    105  N         12.5240   13.4480   20.6620 N.am  320  LEU320     -0.1963
    106  CA        11.6070   12.4380   20.1890 C.3   320  LEU320      0.1728
    107  C         10.3390   13.1170   19.6100 C.2   320  LEU320      0.2617
    108  O          9.6370   12.5650   18.7610 O.2   320  LEU320     -0.2715
    109  CB        11.2870   11.4350   21.3290 C.3   320  LEU320      0.0311
    110  CG        12.4420   10.5630   21.8670 C.3   320  LEU320      0.0022
    111  CD1       11.9300    9.5470   22.8900 C.3   320  LEU320      0.0001
    112  CD2       13.2440    9.8260   20.7520 C.3   320  LEU320      0.0001
    113  N         10.0760   14.3390   20.0560 N.am  321  GLY321     -0.1940
    114  CA         8.9550   15.1230   19.5630 C.3   321  GLY321      0.2014
    115  C          7.7040   14.7830   20.3470 C.2   321  GLY321      0.2640
    116  O          7.5210   13.6400   20.7890 O.2   321  GLY321     -0.2714
    117  N          6.8070   15.7580   20.4740 N.am  322  THR322     -0.1936
    118  CA         5.5600   15.5790   21.2260 C.3   322  THR322      0.2028
    119  C          4.6560   14.4920   20.6370 C.2   322  THR322      0.2642
    120  O          3.9190   13.8130   21.3460 O.2   322  THR322     -0.2714
    121  CB         4.7820   16.9250   21.2910 C.3   322  THR322      0.1808
    122  OG1        5.6320   17.9310   21.8570 O.3   322  THR322     -0.2208
    123  CG2        3.6510   16.8430   22.3000 C.3   322  THR322      0.0379
    124  N          4.6740   14.3250   19.3270 N.am  323  GLU323     -0.1976
    125  CA         3.7970   13.2900   18.7810 C.3   323  GLU323      0.1602
    126  C          4.2050   11.8930   19.2940 C.2   323  GLU323      0.2287
    127  O          3.3800   11.1720   19.8760 O.2   323  GLU323     -0.2864
    128  CB         3.7150   13.3640   17.2450 C.3   323  GLU323      0.0415
    129  CG         2.9450   14.5880   16.7200 C.3   323  GLU323      0.1163
    130  CD         2.4430   14.4490   15.2750 C.2   323  GLU323      0.3649
    131  OE1        1.6920   13.4790   14.9730 O.co2 323  GLU323     -0.2457
    132  OE2        2.7890   15.3330   14.4390 O.co2 323  GLU323     -0.2457
@<TRIPOS>BOND
     1     1     2    1
     2     3     2    1
     3     3     4    2
     4     2     5    1
     5     5     6    1
     6    32    31   ar
     7     6     8   ar
     8     6     7   ar
     9     8    10   ar
    10    33    31   ar
    11    31    30    1
    12    10     9   ar
    13     7     9   ar
    14    30    29    1
    15    29    26    1
    16    37    36    2
    17    26    27    1
    18    26    25    1
    19    14    13    2
    20    17    16    1
    21    17    11    1
    22    28    27    2
    23    16    15    1
    24    27    34   am
    25    25    20   am
    26    11    12    1
    27    36    35    1
    28    15    12    1
    29    43    42    1
    30    13    12    1
    31    13    18   am
    32    34    35    1
    33    42    39    1
    34    42    44    1
    35    20    21    2
    36    20    19    1
    37    19    18    1
    38    19    22    1
    39    39    38    1
    40    39    40    1
    41    63    62    2
    42    64    62   am
    43    62    61    1
    44    22    24    1
    45    22    23    1
    46    40    45   am
    47    40    41    2
    48    45    46    1
    49    48    47    2
    50    61    58    1
    51    46    49    1
    52    46    47    1
    53    47    50   am
    54    58    57    1
    55    58    59    1
    56    57    52   am
    57   132   130   ar
    58    50    51    1
    59    50    56    1
    60    52    51    1
    61    52    53    2
    62   131   130   ar
    63    51    54    1
    64   130   129    1
    65    59    60    2
    66    56    55    1
    67    68    67    2
    68    54    55    1
    69   104   103    1
    70   129   128    1
    71    67    66    1
    72    67    73   am
    73   128   125    1
    74    65    66    1
    75    66    69    1
    76    74    73    1
    77    74    75    1
    78    72    70    1
    79   103   101   ar
    80   103   102   ar
    81   101    99   ar
    82    76    75    2
    83   102   100   ar
    84    96    95    2
    85    69    70    1
    86    70    71    1
    87   108   107    2
    88   125   126    1
    89   125   124    1
    90    99    98   ar
    91   126   127    2
    92   124   119   am
    93   114   113    1
    94   114   115    1
    95   107   113   am
    96   107   106    1
    97   100    98   ar
    98    98    97    1
    99    95    94    1
   100    95   105   am
   101    87    86    2
   102   106   105    1
   103   106   109    1
   104   115   117   am
   105   115   116    2
   106   117   118    1
   107    94    97    1
   108    94    93    1
   109   119   118    1
   110   119   120    2
   111    82    83    1
   112    82    81    1
   113   112   110    1
   114   118   121    1
   115    86    93   am
   116    86    85    1
   117   121   122    1
   118   121   123    1
   119   109   110    1
   120    83    77    1
   121    81    78    1
   122   110   111    1
   123    85    88    1
   124    85    84    1
   125    77    78    1
   126    88    89    1
   127    78    79    1
   128    89    90    1
   129    92    90   ar
   130    90    91   ar
   131    79    80    2
