@<TRIPOS>MOLECULE
tmp/2alvA00.pdb
 219 217 0 0 0
SMALL
GASTEIGER

@<TRIPOS>ATOM
      1  N         74.6940   27.6530   27.3800 N.3    24  THR24      -0.1203
      2  CA        73.6870   28.4500   26.6730 C.3    24  THR24       0.1994
      3  C         72.3900   27.6880   26.5230 C.2    24  THR24       0.2619
      4  O         72.3210   26.6540   25.8510 O.2    24  THR24      -0.2717
      5  CB        74.2040   28.8720   25.2810 C.3    24  THR24       0.1784
      6  OG1       75.3800   29.6690   25.4440 O.3    24  THR24      -0.2211
      7  CG2       73.1630   29.7040   24.5360 C.3    24  THR24       0.0376
      8  N         71.3490   28.2060   27.1670 N.am   25  THR25      -0.1938
      9  CA        70.0390   27.5810   27.1040 C.3    25  THR25       0.2028
     10  C         68.9950   28.5890   26.6040 C.2    25  THR25       0.2642
     11  O         68.9650   29.7260   27.0320 O.2    25  THR25      -0.2714
     12  CB        69.5930   27.0760   28.4900 C.3    25  THR25       0.1808
     13  OG1       70.5490   26.1250   28.9890 O.3    25  THR25      -0.2208
     14  CG2       68.2260   26.3950   28.3930 C.3    25  THR25       0.0379
     15  N         68.1640   28.1500   25.6680 N.am   26  LEU26      -0.1977
     16  CA        67.0680   28.9850   25.1300 C.3    26  LEU26       0.1596
     17  C         65.9130   28.0650   24.7190 C.2    26  LEU26       0.2287
     18  O         66.0160   26.8460   24.8770 O.2    26  LEU26      -0.2864
     19  CB        67.5600   29.8340   23.9630 C.3    26  LEU26       0.0297
     20  CG        68.3330   29.2410   22.7860 C.3    26  LEU26       0.0022
     21  CD1       67.5230   28.1970   22.0530 C.3    26  LEU26       0.0001
     22  CD2       68.7060   30.3900   21.8600 C.3    26  LEU26       0.0001
     23  N         71.9450   30.9390   17.2170 N.3    40  HIS40      -0.1241
     24  CA        72.9070   31.5480   18.1170 C.3    40  HIS40       0.1621
     25  C         73.0840   30.8100   19.4320 C.2    40  HIS40       0.2264
     26  O         73.9410   31.1880   20.2410 O.2    40  HIS40      -0.2867
     27  CB        72.6400   33.0500   18.3680 C.3    40  HIS40       0.0745
     28  CG        71.3340   33.3750   19.0320 C.ar   40  HIS40       0.0817
     29  ND1       71.0050   32.9480   20.3030 N.ar   40  HIS40      -0.2268
     30  CD2       70.3350   34.2090   18.6480 C.ar   40  HIS40       0.1154
     31  CE1       69.8650   33.5090   20.6750 C.ar   40  HIS40       0.1986
     32  NE2       69.4370   34.2780   19.6890 N.ar   40  HIS40      -0.2212
     33  N         76.6740   29.8340   20.0440 N.3    43  CYS43      -0.1235
     34  CA        77.7770   30.7690   20.1900 C.3    43  CYS43       0.1677
     35  C         78.4290   30.6580   21.5530 C.2    43  CYS43       0.2270
     36  O         77.8850   30.0460   22.4840 O.2    43  CYS43      -0.2867
     37  CB        77.3310   32.2030   19.9310 C.3    43  CYS43       0.0956
     38  SG        76.7290   32.4280   18.2720 S.3    43  CYS43      -0.0801
     39  N         81.1460   36.8710   18.9490 N.3    48  MET48      -0.1245
     40  CA        79.7700   37.3720   19.0380 C.3    48  MET48       0.1570
     41  C         79.4970   38.3570   17.9110 C.2    48  MET48       0.2261
     42  O         78.3520   38.6450   17.5790 O.2    48  MET48      -0.2867
     43  CB        79.5410   38.0570   20.3870 C.3    48  MET48       0.0387
     44  CG        79.6880   37.1260   21.5760 C.3    48  MET48       0.0595
     45  SD        78.5370   35.7300   21.4990 S.3    48  MET48      -0.1393
     46  CE        77.6190   35.9580   23.0520 C.3    48  MET48       0.0692
     47  N         80.6960   35.5610   14.4530 N.3    51  PRO51      -0.2116
     48  CA        80.3600   34.1380   14.4720 C.3    51  PRO51       0.1372
     49  C         80.2060   33.4860   13.1060 C.2    51  PRO51       0.2244
     50  O         79.4070   33.9200   12.2860 O.2    51  PRO51      -0.2868
     51  CB        79.0650   34.1040   15.2820 C.3    51  PRO51       0.0268
     52  CG        78.4260   35.4070   14.9380 C.3    51  PRO51       0.0207
     53  CD        79.5890   36.3740   14.9880 C.3    51  PRO51       0.0892
     54  N         78.7620   30.5820   11.8430 N.3    53  TYR53      -0.1241
     55  CA        77.8920   29.4880   12.2310 C.3    53  TYR53       0.1605
     56  C         78.2370   28.2290   11.5160 C.2    53  TYR53       0.2264
     57  O         78.0000   27.1450   12.0310 O.2    53  TYR53      -0.2867
     58  CB        76.4160   29.8280   11.9870 C.3    53  TYR53       0.0534
     59  CG        75.9000   30.9050   12.9100 C.ar   53  TYR53      -0.0201
     60  CD1       76.0230   32.2520   12.5740 C.ar   53  TYR53      -0.0009
     61  CD2       75.3750   30.5790   14.1630 C.ar   53  TYR53      -0.0009
     62  CE1       75.6440   33.2530   13.4700 C.ar   53  TYR53       0.0417
     63  CE2       74.9930   31.5660   15.0640 C.ar   53  TYR53       0.0417
     64  CZ        75.1400   32.9030   14.7130 C.ar   53  TYR53       0.1957
     65  OH        74.8660   33.8810   15.6340 O.3    53  TYR53      -0.2866
     66  N         60.2500   41.0630   26.2910 N.3   139  PHE139     -0.1227
     67  CA        61.1380   39.8690   26.4380 C.3   139  PHE139      0.1736
     68  C         62.2430   40.0590   27.4950 C.2   139  PHE139      0.2595
     69  O         62.8800   41.1100   27.5720 O.2   139  PHE139     -0.2718
     70  CB        61.8300   39.5440   25.1040 C.3   139  PHE139      0.0547
     71  CG        60.9080   39.0540   24.0150 C.ar  139  PHE139     -0.0202
     72  CD1       60.6680   39.8420   22.8790 C.ar  139  PHE139     -0.0042
     73  CD2       60.3300   37.7910   24.0840 C.ar  139  PHE139     -0.0042
     74  CE1       59.8710   39.3770   21.8320 C.ar  139  PHE139     -0.0003
     75  CE2       59.5390   37.3140   23.0550 C.ar  139  PHE139     -0.0003
     76  CZ        59.3000   38.1130   21.9100 C.ar  139  PHE139     -0.0000
     77  N         62.4720   39.0420   28.3120 N.am  140  LEU140     -0.1966
     78  CA        63.5380   39.1430   29.3140 C.3   140  LEU140      0.1728
     79  C         64.6070   38.1320   28.8870 C.2   140  LEU140      0.2616
     80  O         64.4660   37.4550   27.8530 O.2   140  LEU140     -0.2715
     81  CB        62.9950   38.8230   30.7150 C.3   140  LEU140      0.0311
     82  CG        61.9130   39.8170   31.1780 C.3   140  LEU140      0.0022
     83  CD1       60.9830   39.1760   32.1840 C.3   140  LEU140      0.0001
     84  CD2       62.6040   41.0680   31.7580 C.3   140  LEU140      0.0001
     85  N         65.6880   38.0580   29.6610 N.am  141  ASN141     -0.1958
     86  CA        66.7750   37.1360   29.3580 C.3   141  ASN141      0.1819
     87  C         66.2160   35.7120   29.3370 C.2   141  ASN141      0.2622
     88  O         65.3720   35.3570   30.1690 O.2   141  ASN141     -0.2715
     89  CB        67.8890   37.2970   30.4110 C.3   141  ASN141      0.1195
     90  CG        68.6030   38.6380   30.3000 C.2   141  ASN141      0.2630
     91  OD1       69.1850   39.1400   31.2820 O.2   141  ASN141     -0.2716
     92  ND2       68.5830   39.2220   29.1040 N.am  141  ASN141     -0.0877
     93  N         66.6580   34.9090   28.3670 N.am  142  GLY142     -0.1940
     94  CA        66.1770   33.5360   28.2570 C.3   142  GLY142      0.2014
     95  C         64.9300   33.3960   27.3960 C.2   142  GLY142      0.2640
     96  O         64.3340   32.3210   27.2930 O.2   142  GLY142     -0.2714
     97  N         64.5340   34.4930   26.7680 N.am  143  SER143     -0.1935
     98  CA        63.3330   34.4660   25.9280 C.3   143  SER143      0.2055
     99  C         63.5410   34.0820   24.4440 C.2   143  SER143      0.2643
    100  O         62.5410   33.8010   23.7440 O.2   143  SER143     -0.2714
    101  CB        62.5980   35.8270   26.0220 C.3   143  SER143      0.2130
    102  OG        63.3640   36.8930   25.4910 O.3   143  SER143     -0.2179
    103  N         64.7830   34.0310   23.9330 N.am  144  CYS144     -0.1967
    104  CA        64.8850   33.6710   22.4610 C.3   144  CYS144      0.1712
    105  C         64.3190   32.2600   22.1950 C.2   144  CYS144      0.2296
    106  O         64.3160   31.3740   23.0520 O.2   144  CYS144     -0.2864
    107  CB        66.2510   33.8300   21.9050 C.3   144  CYS144      0.0983
    108  SG        66.9400   35.4570   22.1080 S.3   144  CYS144     -0.0798
    109  N         61.6940   34.4470   18.2210 N.3   162  HIS162     -0.1226
    110  CA        62.4860   35.5680   18.7440 C.3   162  HIS162      0.1752
    111  C         64.0170   35.3020   18.7510 C.2   162  HIS162      0.2596
    112  O         64.4630   34.2580   19.2210 O.2   162  HIS162     -0.2718
    113  CB        61.9670   35.8890   20.1610 C.3   162  HIS162      0.0759
    114  CG        62.5580   37.1280   20.7360 C.ar  162  HIS162      0.0818
    115  ND1       62.7440   38.2680   19.9820 N.ar  162  HIS162     -0.2268
    116  CD2       63.0870   37.3900   21.9520 C.ar  162  HIS162      0.1154
    117  CE1       63.3880   39.1720   20.7040 C.ar  162  HIS162      0.1986
    118  NE2       63.6090   38.6630   21.9080 N.ar  162  HIS162     -0.2212
    119  N         64.8020   36.3120   18.3380 N.am  163  HIS163     -0.1961
    120  CA        66.2650   36.2330   18.2710 C.3   163  HIS163      0.1787
    121  C         67.0260   37.3410   19.0170 C.2   163  HIS163      0.2620
    122  O         68.0790   37.0620   19.6330 O.2   163  HIS163     -0.2715
    123  CB        66.7570   36.2950   16.8380 C.3   163  HIS163      0.0785
    124  CG        66.6970   34.9970   16.1190 C.ar  163  HIS163      0.0821
    125  ND1       65.5020   34.4110   15.7360 N.ar  163  HIS163     -0.2267
    126  CD2       67.6890   34.1740   15.6810 C.ar  163  HIS163      0.1154
    127  CE1       65.7710   33.2780   15.0970 C.ar  163  HIS163      0.1986
    128  NE2       67.0850   33.1130   15.0590 N.ar  163  HIS163     -0.2212
    129  N         66.4930   38.5670   19.0320 N.am  164  MET164     -0.1963
    130  CA        67.2630   39.6290   19.6370 C.3   164  MET164      0.1736
    131  C         66.5530   40.9100   20.0290 C.2   164  MET164      0.2616
    132  O         65.4500   41.2010   19.5610 O.2   164  MET164     -0.2715
    133  CB        68.3940   39.9840   18.6760 C.3   164  MET164      0.0427
    134  CG        67.9260   40.5660   17.3750 C.3   164  MET164      0.0599
    135  SD        69.1780   40.5300   16.0550 S.3   164  MET164     -0.1393
    136  CE        70.5490   41.6180   16.7550 C.3   164  MET164      0.0692
    137  N         67.2170   41.6920   20.8710 N.am  165  GLU165     -0.1963
    138  CA        66.6670   42.9620   21.2880 C.3   165  GLU165      0.1733
    139  C         67.5420   44.0480   20.6570 C.2   165  GLU165      0.2616
    140  O         68.7740   43.9430   20.6840 O.2   165  GLU165     -0.2715
    141  CB        66.6810   43.0900   22.8190 C.3   165  GLU165      0.0429
    142  CG        65.8100   44.2130   23.3070 C.3   165  GLU165      0.1163
    143  CD        65.6000   44.2190   24.8210 C.2   165  GLU165      0.3649
    144  OE1       66.4200   44.8690   25.5000 O.co2 165  GLU165     -0.2457
    145  OE2       64.6200   43.5880   25.3190 O.co2 165  GLU165     -0.2457
    146  N         66.9240   45.0670   20.0750 N.am  166  LEU166     -0.1964
    147  CA        67.6970   46.1520   19.4700 C.3   166  LEU166      0.1713
    148  C         67.9050   47.1960   20.5410 C.2   166  LEU166      0.2458
    149  O         67.2640   47.1400   21.5880 O.2   166  LEU166     -0.2730
    150  CB        66.9620   46.7590   18.2860 C.3   166  LEU166      0.0310
    151  CG        66.8550   45.8150   17.0900 C.3   166  LEU166      0.0022
    152  CD1       65.9610   46.4360   16.0070 C.3   166  LEU166      0.0001
    153  CD2       68.2560   45.5500   16.5450 C.3   166  LEU166      0.0001
    154  N         68.7910   48.1690   20.2930 N.am  167  PRO167     -0.2727
    155  CA        69.1250   49.2540   21.2200 C.3   167  PRO167      0.1402
    156  C         67.9790   50.0950   21.7450 C.2   167  PRO167      0.2269
    157  O         68.0690   50.6780   22.8290 O.2   167  PRO167     -0.2865
    158  CB        70.1080   50.1010   20.4190 C.3   167  PRO167      0.0296
    159  CG        70.7850   49.1170   19.5970 C.3   167  PRO167      0.0237
    160  CD        69.6460   48.2480   19.0980 C.3   167  PRO167      0.0939
    161  N         62.2800   44.4260   19.4000 N.3   171  HIS171     -0.1241
    162  CA        62.7480   43.0970   19.0790 C.3   171  HIS171      0.1621
    163  C         62.7360   42.7310   17.6310 C.2   171  HIS171      0.2264
    164  O         61.9610   43.3120   16.8330 O.2   171  HIS171     -0.2867
    165  CB        61.9280   42.1490   19.8810 C.3   171  HIS171      0.0745
    166  CG        61.8990   42.5310   21.3220 C.ar  171  HIS171      0.0817
    167  ND1       60.9300   43.3640   21.8540 N.ar  171  HIS171     -0.2268
    168  CD2       62.8030   42.3240   22.3080 C.ar  171  HIS171      0.1154
    169  CE1       61.2430   43.6470   23.1110 C.ar  171  HIS171      0.1986
    170  NE2       62.3760   43.0260   23.4090 N.ar  171  HIS171     -0.2212
    171  N         71.8360   37.7230   12.9260 N.3   186  ASP186     -0.1225
    172  CA        72.0560   37.2130   14.2710 C.3   186  ASP186      0.1805
    173  C         73.5030   37.2640   14.7450 C.2   186  ASP186      0.2598
    174  O         74.1780   36.2270   14.9120 O.2   186  ASP186     -0.2718
    175  CB        71.5320   35.7990   14.3800 C.3   186  ASP186      0.1424
    176  CG        71.9880   34.9100   13.2400 C.2   186  ASP186      0.3668
    177  OD1       72.7060   35.3770   12.3280 O.co2 186  ASP186     -0.2456
    178  OD2       71.5800   33.7460   13.2500 O.co2 186  ASP186     -0.2456
    179  N         74.0000   38.4760   14.9260 N.am  187  ARG187     -0.1966
    180  CA        75.3450   38.6630   15.4580 C.3   187  ARG187      0.1729
    181  C         75.3870   39.9940   16.2040 C.2   187  ARG187      0.2616
    182  O         74.7250   40.9730   15.8080 O.2   187  ARG187     -0.2715
    183  CB        76.4030   38.5870   14.3550 C.3   187  ARG187      0.0348
    184  CG        76.1410   39.3740   13.0910 C.3   187  ARG187      0.0492
    185  CD        77.3870   39.3160   12.2180 C.3   187  ARG187      0.2205
    186  NE        77.2280   39.9820   10.9300 N.pl3 187  ARG187     -0.0865
    187  CZ        76.6360   39.4360    9.8720 C.cat 187  ARG187      0.5346
    188  NH1       76.5340   40.1200    8.7290 N.pl3 187  ARG187      0.1354
    189  NH2       76.1470   38.2040    9.9540 N.pl3 187  ARG187      0.1354
    190  N         76.1490   40.0200   17.2980 N.am  188  GLN188     -0.1963
    191  CA        76.2400   41.2050   18.1610 C.3   188  GLN188      0.1733
    192  C         76.7580   42.5050   17.5540 C.2   188  GLN188      0.2617
    193  O         77.0430   43.4480   18.2850 O.2   188  GLN188     -0.2715
    194  CB        77.0480   40.8730   19.4300 C.3   188  GLN188      0.0408
    195  CG        76.4350   39.7450   20.2770 C.3   188  GLN188      0.0908
    196  CD        75.9550   40.2090   21.6540 C.2   188  GLN188      0.2608
    197  OE1       75.2370   39.4860   22.3490 O.2   188  GLN188     -0.2717
    198  NE2       76.3570   41.4110   22.0540 N.am  188  GLN188     -0.0878
    199  N         76.8730   42.5810   16.2320 N.am  189  THR189     -0.1937
    200  CA        77.3330   43.8300   15.6370 C.3   189  THR189      0.2028
    201  C         76.3230   44.8720   16.1130 C.2   189  THR189      0.2642
    202  O         75.2390   44.5270   16.5900 O.2   189  THR189     -0.2714
    203  CB        77.3680   43.7800   14.0760 C.3   189  THR189      0.1808
    204  OG1       76.0890   43.3800   13.5610 O.3   189  THR189     -0.2208
    205  CG2       78.4560   42.8090   13.5920 C.3   189  THR189      0.0379
    206  N         76.6770   46.1440   16.0170 N.am  190  ALA190     -0.1963
    207  CA        75.7740   47.1870   16.4630 C.3   190  ALA190      0.1728
    208  C         74.8570   47.6350   15.3230 C.2   190  ALA190      0.2616
    209  O         75.2460   48.4060   14.4420 O.2   190  ALA190     -0.2715
    210  CB        76.5620   48.3710   17.0050 C.3   190  ALA190      0.0334
    211  N         73.6290   47.1360   15.3470 N.am  191  GLN191     -0.1977
    212  CA        72.6490   47.4880   14.3200 C.3   191  GLN191      0.1601
    213  C         71.5080   48.2920   14.9650 C.2   191  GLN191      0.2287
    214  O         71.4020   48.3810   16.1900 O.2   191  GLN191     -0.2864
    215  CB        72.1400   46.2070   13.6320 C.3   191  GLN191      0.0394
    216  CG        71.8070   45.0660   14.5730 C.3   191  GLN191      0.0908
    217  CD        71.9650   43.6750   13.9220 C.2   191  GLN191      0.2608
    218  OE1       71.4590   43.4180   12.8150 O.2   191  GLN191     -0.2717
    219  NE2       72.6590   42.7690   14.6200 N.am  191  GLN191     -0.0878
@<TRIPOS>BOND
     1   188   187    1
     2   187   189    1
     3   187   186    2
     4   186   185    1
     5    56    57    2
     6    56    55    1
     7    54    55    1
     8    58    55    1
     9    58    59    1
    10   185   184    1
    11    50    49    2
    12   177   176   ar
    13    60    59   ar
    14    60    62   ar
    15   218   217    2
    16    59    61   ar
    17   171   172    1
    18   184   183    1
    19    49    48    1
    20   176   178   ar
    21   176   175    1
    22    62    64   ar
    23   204   203    1
    24   205   203    1
    25   215   212    1
    26   215   216    1
    27   217   216    1
    28   217   219   am
    29   203   200    1
    30    61    63   ar
    31   172   175    1
    32   172   173    1
    33   212   213    1
    34   212   211    1
    35   183   180    1
    36   209   208    2
    37    47    48    1
    38    47    53    1
    39    48    51    1
    40    64    63   ar
    41    64    65    1
    42   173   174    2
    43   173   179   am
    44   179   180    1
    45    52    53    1
    46    52    51    1
    47   213   214    2
    48   128   127   ar
    49   128   126   ar
    50   127   125   ar
    51   208   211   am
    52   208   207    1
    53   180   181    1
    54   200   201    1
    55   200   199    1
    56   126   124   ar
    57   125   124   ar
    58   182   181    2
    59   152   151    1
    60   206   201   am
    61   206   207    1
    62   135   136    1
    63   135   134    1
    64   201   202    2
    65   124   123    1
    66   181   190   am
    67   199   192   am
    68   207   210    1
    69   153   151    1
    70   164   163    2
    71   123   120    1
    72   151   150    1
    73    23    24    1
    74   190   191    1
    75   134   133    1
    76   192   191    1
    77   192   193    2
    78    42    41    2
    79   163   162    1
    80    41    40    1
    81    24    27    1
    82    24    25    1
    83   191   194    1
    84   109   110    1
    85   120   119    1
    86   120   121    1
    87    38    37    1
    88   150   147    1
    89   119   111   am
    90    27    28    1
    91    30    28   ar
    92    30    32   ar
    93   133   130    1
    94   110   111    1
    95   110   113    1
    96   111   112    2
    97    39    40    1
    98   121   129   am
    99   121   122    2
   100    28    29   ar
   101   129   130    1
   102    40    43    1
   103   162   161    1
   104   162   165    1
   105   160   159    1
   106   160   154    1
   107   194   195    1
   108    25    26    2
   109   147   146    1
   110   147   148    1
   111   132   131    2
   112   159   158    1
   113   130   131    1
   114    32    31   ar
   115   165   166    1
   116    37    34    1
   117   115   117   ar
   118   115   114   ar
   119   131   137   am
   120    33    34    1
   121   146   139   am
   122   113   114    1
   123    34    35    1
   124   195   196    1
   125   154   148   am
   126   154   155    1
   127    29    31   ar
   128    43    44    1
   129   158   155    1
   130   148   149    2
   131   139   140    2
   132   139   138    1
   133   117   118   ar
   134   114   116   ar
   135   137   138    1
   136   155   156    1
   137   138   141    1
   138   166   167   ar
   139   166   168   ar
   140    45    44    1
   141    45    46    1
   142    35    36    2
   143   196   198   am
   144   196   197    2
   145   156   157    2
   146    74    76   ar
   147    74    72   ar
   148   167   169   ar
   149    22    20    1
   150   107   108    1
   151   107   104    1
   152   118   116   ar
   153    76    75   ar
   154    21    20    1
   155   105   104    1
   156   105   106    2
   157   168   170   ar
   158   104   103    1
   159    20    19    1
   160   141   142    1
   161    72    71   ar
   162    75    73   ar
   163   169   170   ar
   164   142   143    1
   165   100    99    2
   166   103    99   am
   167    19    16    1
   168    71    73   ar
   169    71    70    1
   170    99    98    1
   171     7     5    1
   172    17    18    2
   173    17    16    1
   174   143   145   ar
   175   143   144   ar
   176    70    67    1
   177    16    15    1
   178     5     6    1
   179     5     2    1
   180   102   101    1
   181    15    10   am
   182     4     3    2
   183    98   101    1
   184    98    97    1
   185    66    67    1
   186    67    68    1
   187     3     2    1
   188     3     8   am
   189    10    11    2
   190    10     9    1
   191     2     1    1
   192    97    95   am
   193     9     8    1
   194     9    12    1
   195    96    95    2
   196    95    94    1
   197    68    69    2
   198    68    77   am
   199    80    79    2
   200    94    93    1
   201    77    78    1
   202    93    87   am
   203    14    12    1
   204    12    13    1
   205    79    78    1
   206    79    85   am
   207    92    90   am
   208    78    81    1
   209    87    86    1
   210    87    88    2
   211    86    85    1
   212    86    89    1
   213    90    89    1
   214    90    91    2
   215    81    82    1
   216    82    84    1
   217    82    83    1
