@<TRIPOS>MOLECULE
tmp/2alyA00.pdb
 233 225 0 0 0
SMALL
GASTEIGER

@<TRIPOS>ATOM
      1  N         13.4050   64.9980   27.1490 N.3    65  TRP65      -0.1241
      2  CA        13.4070   63.5580   26.8570 C.3    65  TRP65       0.1605
      3  C         12.5000   62.7610   27.7980 C.2    65  TRP65       0.2264
      4  O         12.3880   63.0770   28.9830 O.2    65  TRP65      -0.2867
      5  CB        14.8450   63.0050   26.9430 C.3    65  TRP65       0.0550
      6  CG        15.6680   63.1580   25.6740 C.ar   65  TRP65       0.0003
      7  CD1       15.6690   62.3260   24.5800 C.ar   65  TRP65       0.0946
      8  CD2       16.5580   64.2310   25.3550 C.ar   65  TRP65       0.0152
      9  NE1       16.5020   62.8210   23.6000 N.ar   65  TRP65      -0.2442
     10  CE2       17.0580   63.9890   24.0480 C.ar   65  TRP65       0.0810
     11  CE3       16.9790   65.3760   26.0420 C.ar   65  TRP65       0.0012
     12  CZ2       17.9550   64.8510   23.4200 C.ar   65  TRP65       0.0191
     13  CZ3       17.8730   66.2350   25.4170 C.ar   65  TRP65       0.0001
     14  CH2       18.3510   65.9660   24.1150 C.ar   65  TRP65       0.0015
     15  N         18.2160   57.9480   22.5090 N.3    94  HIS94      -0.1241
     16  CA        18.7450   58.3060   21.1900 C.3    94  HIS94       0.1621
     17  C         20.0770   57.5840   20.9520 C.2    94  HIS94       0.2264
     18  O         20.6510   57.0080   21.8770 O.2    94  HIS94      -0.2867
     19  CB        18.9300   59.8280   21.0590 C.3    94  HIS94       0.0745
     20  CG        19.7470   60.4530   22.1530 C.ar   94  HIS94       0.0817
     21  ND1       20.1050   61.7860   22.1390 N.ar   94  HIS94      -0.2268
     22  CD2       20.2330   59.9470   23.3150 C.ar   94  HIS94       0.1154
     23  CE1       20.7700   62.0750   23.2450 C.ar   94  HIS94       0.1986
     24  NE2       20.8630   60.9770   23.9760 N.ar   94  HIS94      -0.2212
     25  N         22.8050   59.0480   20.1130 N.3    96  SER96      -0.1217
     26  CA        23.8880   59.9640   20.4490 C.3    96  SER96       0.1889
     27  C         24.9620   59.4700   21.4290 C.2    96  SER96       0.2288
     28  O         26.1300   59.8070   21.2720 O.2    96  SER96      -0.2866
     29  CB        23.3010   61.2910   20.9260 C.3    96  SER96       0.2089
     30  OG        22.5790   61.9050   19.8680 O.3    96  SER96      -0.2183
     31  N         28.1920   58.2540   20.2620 N.3    99  GLN99      -0.1245
     32  CA        29.0500   59.3290   19.7820 C.3    99  GLN99       0.1566
     33  C         30.2000   59.5210   20.7850 C.2    99  GLN99       0.2260
     34  O         31.3240   59.8420   20.4040 O.2    99  GLN99      -0.2867
     35  CB        28.1720   60.5800   19.6490 C.3    99  GLN99       0.0367
     36  CG        28.7860   61.8550   19.1690 C.3    99  GLN99       0.0905
     37  CD        27.7150   62.9180   18.9110 C.2    99  GLN99       0.2608
     38  OE1       27.9690   64.1270   19.0200 O.2    99  GLN99      -0.2717
     39  NE2       26.5110   62.4680   18.5600 N.am   99  GLN99      -0.0878
     40  N         11.5950   55.7680   23.9350 N.3   120  ARG120     -0.1245
     41  CA        11.0810   56.9580   24.5900 C.3   120  ARG120      0.1563
     42  C          9.6750   56.7220   25.1010 C.2   120  ARG120      0.2260
     43  O          8.8080   56.2400   24.3750 O.2   120  ARG120     -0.2867
     44  CB        11.0890   58.1460   23.6380 C.3   120  ARG120      0.0307
     45  CG        12.4750   58.5910   23.2660 C.3   120  ARG120      0.0489
     46  CD        12.4370   59.8410   22.4310 C.3   120  ARG120      0.2205
     47  NE        13.7400   60.1280   21.8570 N.pl3 120  ARG120     -0.0865
     48  CZ        13.9910   61.1640   21.0700 C.cat 120  ARG120      0.5346
     49  NH1       13.0220   62.0170   20.7730 N.pl3 120  ARG120      0.1354
     50  NH2       15.2020   61.3320   20.5570 N.pl3 120  ARG120      0.1354
     51  N          6.5060   57.8070   25.4710 N.3   122  GLU122     -0.1245
     52  CA         5.5580   58.7970   24.9740 C.3   122  GLU122      0.1567
     53  C          4.4050   58.1120   24.2400 C.2   122  GLU122      0.2260
     54  O          4.4810   56.9250   23.9210 O.2   122  GLU122     -0.2867
     55  CB         6.2620   59.8010   24.0580 C.3   122  GLU122      0.0388
     56  CG         6.6220   59.2820   22.6890 C.3   122  GLU122      0.1160
     57  CD         7.4150   60.2930   21.8870 C.2   122  GLU122      0.3649
     58  OE1        8.6110   60.4960   22.1940 O.co2 122  GLU122     -0.2457
     59  OE2        6.8400   60.8930   20.9540 O.co2 122  GLU122     -0.2457
     60  N          2.6960   58.8020   13.6750 N.3   127  THR127     -0.1203
     61  CA         4.0460   59.2520   13.3510 C.3   127  THR127      0.1994
     62  C          4.9740   59.2450   14.5660 C.2   127  THR127      0.2618
     63  O          6.0850   59.7780   14.5140 O.2   127  THR127     -0.2717
     64  CB         4.0150   60.6710   12.7450 C.3   127  THR127      0.1784
     65  OG1        3.4430   61.5840   13.6890 O.3   127  THR127     -0.2211
     66  CG2        3.1850   60.6810   11.4690 C.3   127  THR127      0.0376
     67  N          4.5110   58.6310   15.6530 N.am  128  HIS128     -0.1961
     68  CA         5.2870   58.5470   16.8870 C.3   128  HIS128      0.1787
     69  C          5.2310   57.1560   17.4870 C.2   128  HIS128      0.2620
     70  O          4.1640   56.5560   17.6050 O.2   128  HIS128     -0.2715
     71  CB         4.7740   59.5480   17.9250 C.3   128  HIS128      0.0785
     72  CG         4.8280   60.9700   17.4660 C.ar  128  HIS128      0.0821
     73  ND1        4.0440   61.4510   16.4390 N.ar  128  HIS128     -0.2267
     74  CD2        5.5970   62.0070   17.8700 C.ar  128  HIS128      0.1154
     75  CE1        4.3310   62.7230   16.2280 C.ar  128  HIS128      0.1986
     76  NE2        5.2700   63.0850   17.0820 N.ar  128  HIS128     -0.2212
     77  N          6.3970   56.6490   17.8610 N.am  129  GLU129     -0.1977
     78  CA         6.5080   55.3360   18.4780 C.3   129  GLU129      0.1602
     79  C          7.2980   55.4910   19.7730 C.2   129  GLU129      0.2287
     80  O          7.9990   56.4870   19.9650 O.2   129  GLU129     -0.2864
     81  CB         7.2330   54.3730   17.5360 C.3   129  GLU129      0.0415
     82  CG         6.3480   53.2980   16.9610 C.3   129  GLU129      0.1163
     83  CD         6.0750   52.1710   17.9400 C.2   129  GLU129      0.3649
     84  OE1        6.3110   52.3520   19.1590 O.co2 129  GLU129     -0.2457
     85  OE2        5.6190   51.1000   17.4810 O.co2 129  GLU129     -0.2457
     86  N         11.5640   53.1310   18.2920 N.3   132  PHE132     -0.1241
     87  CA        11.8830   53.4010   16.8910 C.3   132  PHE132      0.1605
     88  C         13.3950   53.3310   16.6170 C.2   132  PHE132      0.2264
     89  O         14.1750   52.8630   17.4540 O.2   132  PHE132     -0.2867
     90  CB        11.3210   54.7720   16.4720 C.3   132  PHE132      0.0534
     91  CG        11.7120   55.8990   17.3900 C.ar  132  PHE132     -0.0203
     92  CD1       11.1260   56.0290   18.6490 C.ar  132  PHE132     -0.0042
     93  CD2       12.6900   56.8160   17.0100 C.ar  132  PHE132     -0.0042
     94  CE1       11.5080   57.0580   19.5300 C.ar  132  PHE132     -0.0003
     95  CE2       13.0840   57.8520   17.8810 C.ar  132  PHE132     -0.0003
     96  CZ        12.4880   57.9730   19.1480 C.ar  132  PHE132     -0.0000
     97  N         17.0560   55.2960   14.9490 N.3   134  GLN134     -0.1245
     98  CA        17.7540   56.4960   14.5240 C.3   134  GLN134      0.1566
     99  C         19.0740   56.1240   13.8540 C.2   134  GLN134      0.2260
    100  O         19.5470   54.9870   13.9580 O.2   134  GLN134     -0.2867
    101  CB        18.0510   57.3980   15.7300 C.3   134  GLN134      0.0367
    102  CG        16.8360   58.1080   16.2700 C.3   134  GLN134      0.0905
    103  CD        17.1660   59.0320   17.4130 C.2   134  GLN134      0.2608
    104  OE1       16.5450   60.0830   17.5650 O.2   134  GLN134     -0.2717
    105  NE2       18.1380   58.6440   18.2390 N.am  134  GLN134     -0.0878
    106  N         22.8150   57.8480   13.6750 N.3   136  GLU136     -0.1245
    107  CA        23.6930   58.9510   14.0420 C.3   136  GLU136      0.1567
    108  C         24.7820   58.9980   13.0040 C.2   136  GLU136      0.2260
    109  O         25.0580   58.0040   12.3380 O.2   136  GLU136     -0.2867
    110  CB        24.4020   58.7420   15.3850 C.3   136  GLU136      0.0388
    111  CG        23.6220   59.0990   16.6190 C.3   136  GLU136      0.1160
    112  CD        23.4420   60.5830   16.8200 C.2   136  GLU136      0.3649
    113  OE1       24.4560   61.3050   16.8970 O.co2 136  GLU136     -0.2457
    114  OE2       22.2680   61.0140   16.9230 O.co2 136  GLU136     -0.2457
    115  N         20.4130   71.7930   21.1120 N.3   174  PHE174     -0.1241
    116  CA        20.8590   70.4720   21.5670 C.3   174  PHE174      0.1605
    117  C         22.0440   70.7050   22.4900 C.2   174  PHE174      0.2264
    118  O         23.0780   71.2300   22.0700 O.2   174  PHE174     -0.2867
    119  CB        21.3070   69.5870   20.3930 C.3   174  PHE174      0.0534
    120  CG        20.1810   69.0990   19.5200 C.ar  174  PHE174     -0.0203
    121  CD1       19.3010   68.1220   19.9740 C.ar  174  PHE174     -0.0042
    122  CD2       20.0080   69.6040   18.2370 C.ar  174  PHE174     -0.0042
    123  CE1       18.2560   67.6530   19.1610 C.ar  174  PHE174     -0.0003
    124  CE2       18.9650   69.1360   17.4130 C.ar  174  PHE174     -0.0003
    125  CZ        18.0880   68.1570   17.8830 C.ar  174  PHE174     -0.0000
    126  N         24.3400   69.0510   23.1510 N.3   176  PHE176     -0.1227
    127  CA        25.5680   68.4980   22.5720 C.3   176  PHE176      0.1736
    128  C         26.1350   69.1080   21.2770 C.2   176  PHE176      0.2595
    129  O         27.0750   68.5590   20.7080 O.2   176  PHE176     -0.2718
    130  CB        25.4730   66.9590   22.4140 C.3   176  PHE176      0.0547
    131  CG        24.0880   66.4390   22.0790 C.ar  176  PHE176     -0.0202
    132  CD1       23.0880   66.3880   23.0510 C.ar  176  PHE176     -0.0042
    133  CD2       23.7980   65.9650   20.7980 C.ar  176  PHE176     -0.0042
    134  CE1       21.8130   65.8700   22.7550 C.ar  176  PHE176     -0.0003
    135  CE2       22.5380   65.4450   20.4870 C.ar  176  PHE176     -0.0003
    136  CZ        21.5440   65.3970   21.4640 C.ar  176  PHE176     -0.0000
    137  N         25.4640   70.1740   20.7090 N.am  177  VAL177     -0.1980
    138  CA        26.1350   70.8820   19.6170 C.3   177  VAL177      0.1595
    139  C         26.0350   72.3900   19.8150 C.2   177  VAL177      0.2287
    140  O         25.1820   72.8620   20.5500 O.2   177  VAL177     -0.2864
    141  CB        25.5480   70.5510   18.2110 C.3   177  VAL177      0.0276
    142  CG1       26.2010   69.2990   17.6480 C.3   177  VAL177      0.0022
    143  CG2       24.0220   70.4080   18.2920 C.3   177  VAL177      0.0022
    144  N         10.9970   66.8340    7.7020 N.3   195  GLU195     -0.1231
    145  CA        11.9170   67.1280    8.7890 C.3   195  GLU195      0.1699
    146  C         12.5920   65.8180    9.2130 C.2   195  GLU195      0.2592
    147  O         12.0140   65.0290    9.9600 O.2   195  GLU195     -0.2718
    148  CB        11.1570   67.7490    9.9600 C.3   195  GLU195      0.0402
    149  CG        10.5800   69.1330    9.6660 C.3   195  GLU195      0.1161
    150  CD        11.6500   70.1820    9.3640 C.2   195  GLU195      0.3649
    151  OE1       12.7120   70.1760   10.0320 O.co2 195  GLU195     -0.2457
    152  OE2       11.4210   71.0250    8.4680 O.co2 195  GLU195     -0.2457
    153  N         13.8160   65.5980    8.7340 N.am  196  LEU196     -0.1966
    154  CA        14.5620   64.3760    9.0190 C.3   196  LEU196      0.1731
    155  C         15.2450   64.2550   10.3710 C.2   196  LEU196      0.2656
    156  O         15.1490   63.2120   11.0080 O.2   196  LEU196     -0.2711
    157  CB        15.6190   64.1370    7.9450 C.3   196  LEU196      0.0311
    158  CG        15.1470   63.6150    6.6010 C.3   196  LEU196      0.0022
    159  CD1       16.3380   63.4940    5.6740 C.3   196  LEU196      0.0001
    160  CD2       14.4770   62.2660    6.7840 C.3   196  LEU196      0.0001
    161  N         15.9650   65.2850   10.8020 N.am  197  GLY197     -0.1716
    162  CA        16.6320   65.1610   12.0810 C.2   197  GLY197      0.1480
    163  C         17.3240   66.3950   12.6030 C.2   197  GLY197      0.2821
    164  O         17.0730   67.5060   12.1400 O.2   197  GLY197     -0.2669
    165  N         18.1920   66.1900   13.5880 N.am  198  GLY198     -0.1905
    166  CA        18.9120   67.2940   14.1900 C.3   198  GLY198      0.2017
    167  C         20.3890   67.1140   13.9380 C.2   198  GLY198      0.2638
    168  O         20.8280   66.0090   13.6090 O.2   198  GLY198     -0.2714
    169  N         21.1570   68.1880   14.1010 N.am  199  ALA199     -0.1977
    170  CA        22.5880   68.1360   13.8460 C.3   199  ALA199      0.1597
    171  C         23.2820   69.3970   14.3620 C.2   199  ALA199      0.2287
    172  O         22.6380   70.2780   14.9640 O.2   199  ALA199     -0.2864
    173  CB        22.8280   67.9870   12.3380 C.3   199  ALA199      0.0319
    174  N         27.7990   66.2680   13.8290 N.3   230  ALA230     -0.1231
    175  CA        27.0590   65.0500   14.0840 C.3   230  ALA230      0.1694
    176  C         25.6000   65.3550   13.8310 C.2   230  ALA230      0.2592
    177  O         25.2130   66.5230   13.6850 O.2   230  ALA230     -0.2718
    178  CB        27.2520   64.6080   15.5130 C.3   230  ALA230      0.0304
    179  N         24.8610   64.2760   13.4830 N.am  231  PHE231     -0.1962
    180  CA        23.4520   64.4100   13.1770 C.3   231  PHE231      0.1771
    181  C         22.7410   63.1360   13.6130 C.2   231  PHE231      0.2620
    182  O         23.3800   62.0960   13.8450 O.2   231  PHE231     -0.2715
    183  CB        23.2580   64.6690   11.6820 C.3   231  PHE231      0.0574
    184  CG        23.8030   63.5820   10.7990 C.ar  231  PHE231     -0.0200
    185  CD1       23.1200   62.3700   10.6550 C.ar  231  PHE231     -0.0042
    186  CD2       25.0080   63.7650   10.1100 C.ar  231  PHE231     -0.0042
    187  CE1       23.6310   61.3540    9.8330 C.ar  231  PHE231     -0.0003
    188  CE2       25.5280   62.7570    9.2880 C.ar  231  PHE231     -0.0003
    189  CZ        24.8410   61.5520    9.1470 C.ar  231  PHE231     -0.0000
    190  N         21.4240   63.2330   13.7540 N.am  232  GLY232     -0.1940
    191  CA        20.6230   62.0890   14.1620 C.3   232  GLY232      0.2014
    192  C         19.3030   62.1670   13.4230 C.2   232  GLY232      0.2639
    193  O         18.5880   63.1670   13.5290 O.2   232  GLY232     -0.2714
    194  N         18.9660   61.1320   12.6680 N.am  233  LEU233     -0.1963
    195  CA        17.7200   61.1780   11.9200 C.3   233  LEU233      0.1728
    196  C         16.8280   59.9580   12.1560 C.2   233  LEU233      0.2616
    197  O         17.3060   58.8910   12.5440 O.2   233  LEU233     -0.2715
    198  CB        18.0370   61.3600   10.4320 C.3   233  LEU233      0.0311
    199  CG        18.9510   60.3040    9.8190 C.3   233  LEU233      0.0022
    200  CD1       18.1450   59.0290    9.6290 C.3   233  LEU233      0.0001
    201  CD2       19.5150   60.7860    8.4890 C.3   233  LEU233      0.0001
    202  N         15.5280   60.1380   11.9270 N.am  234  GLY234     -0.1955
    203  CA        14.5710   59.0670   12.1380 C.3   234  GLY234      0.1869
    204  C         14.4550   58.1120   10.9700 C.2   234  GLY234      0.2309
    205  O         14.0400   58.4950    9.8730 O.2   234  GLY234     -0.2863
    206  N         12.4020   55.3260   10.6830 N.3   236  GLU236     -0.1231
    207  CA        11.0090   55.0650   10.3300 C.3   236  GLU236      0.1699
    208  C         10.4000   56.1980    9.5220 C.2   236  GLU236      0.2592
    209  O          9.7340   55.9530    8.5200 O.2   236  GLU236     -0.2718
    210  CB        10.1540   54.8180   11.5700 C.3   236  GLU236      0.0402
    211  CG        10.3100   53.4300   12.1670 C.3   236  GLU236      0.1161
    212  CD        11.4120   53.3630   13.1900 C.2   236  GLU236      0.3649
    213  OE1       12.0480   54.4040   13.4240 O.co2 236  GLU236     -0.2457
    214  OE2       11.6460   52.2820   13.7640 O.co2 236  GLU236     -0.2457
    215  N         10.6380   57.4330    9.9570 N.am  237  ARG237     -0.1980
    216  CA        10.1180   58.6150    9.2700 C.3   237  ARG237      0.1597
    217  C         10.5140   58.6380    7.7990 C.2   237  ARG237      0.2287
    218  O          9.7260   59.0030    6.9360 O.2   237  ARG237     -0.2864
    219  CB        10.6320   59.8970    9.9380 C.3   237  ARG237      0.0334
    220  CG         9.6000   60.6270   10.7870 C.3   237  ARG237      0.0492
    221  CD         9.2470   59.8220   12.0110 C.3   237  ARG237      0.2205
    222  NE         8.2920   60.4850   12.8950 N.pl3 237  ARG237     -0.0865
    223  CZ         8.3940   61.7430   13.3140 C.cat 237  ARG237      0.5346
    224  NH1        9.4060   62.5050   12.9210 N.pl3 237  ARG237      0.1354
    225  NH2        7.4990   62.2300   14.1630 N.pl3 237  ARG237      0.1354
    226  N          3.2700   54.5590   11.4180 N.3   248  ILE248     -0.1245
    227  CA         4.5070   54.0850   12.0340 C.3   248  ILE248      0.1561
    228  C          4.3180   52.8370   12.8820 C.2   248  ILE248      0.2260
    229  O          5.2420   52.0380   13.0450 O.2   248  ILE248     -0.2867
    230  CB         5.1590   55.1660   12.9290 C.3   248  ILE248      0.0252
    231  CG1        6.5660   54.7200   13.3340 C.3   248  ILE248      0.0019
    232  CG2        4.3420   55.3740   14.1930 C.3   248  ILE248      0.0019
    233  CD1        7.4160   55.8370   13.8780 C.3   248  ILE248      0.0001
@<TRIPOS>BOND
     1   159   158    1
     2   158   160    1
     3   158   157    1
     4   218   217    2
     5   144   145    1
     6   217   216    1
     7   157   154    1
     8   152   150   ar
     9   201   199    1
    10   209   208    2
    11   153   154    1
    12   153   146   am
    13   145   146    1
    14   145   148    1
    15   154   155    1
    16   189   188   ar
    17   189   187   ar
    18   146   147    2
    19   216   219    1
    20   216   215    1
    21   188   186   ar
    22   150   149    1
    23   150   151   ar
    24   208   215   am
    25   208   207    1
    26   200   199    1
    27   149   148    1
    28   199   198    1
    29   187   185   ar
    30   205   204    2
    31   219   220    1
    32   186   184   ar
    33   207   206    1
    34   207   210    1
    35   155   161    1
    36   155   156    2
    37   198   195    1
    38   185   184   ar
    39   220   221    1
    40   184   183    1
    41   161   162    2
    42   204   203    1
    43   226   227    1
    44    66    64    1
    45   210   211    1
    46   183   180    1
    47   195   196    1
    48   195   194    1
    49   202   203    1
    50   202   196   am
    51   221   222    1
    52   227   228    1
    53   227   230    1
    54   162   163    1
    55   164   163    2
    56   196   197    2
    57   211   212    1
    58   173   170    1
    59   109   108    2
    60   163   165   am
    61   194   192   am
    62    64    61    1
    63    64    65    1
    64   228   229    2
    65   222   223    2
    66   224   223    1
    67   230   231    1
    68   230   232    1
    69   108   107    1
    70   180   179    1
    71   180   181    1
    72   212   213   ar
    73   212   214   ar
    74   223   225    1
    75   231   233    1
    76    61    60    1
    77    61    62    1
    78   192   193    2
    79   192   191    1
    80   179   176   am
    81   165   166    1
    82   168   167    2
    83   181   190   am
    84   181   182    2
    85   106   107    1
    86   177   176    2
    87   190   191    1
    88   174   175    1
    89   176   175    1
    90   170   169    1
    91   170   171    1
    92    99   100    2
    93    99    98    1
    94   167   169   am
    95   167   166    1
    96   107   110    1
    97   175   178    1
    98   171   172    2
    99    63    62    2
   100    98    97    1
   101    98   101    1
   102    62    67   am
   103   110   111    1
   104    67    68    1
   105   101   102    1
   106    75    73   ar
   107    75    76   ar
   108   102   103    1
   109    73    72   ar
   110    90    87    1
   111    90    91    1
   112    88    87    1
   113    88    89    2
   114   111   112    1
   115   112   113   ar
   116   112   114   ar
   117    68    69    1
   118    68    71    1
   119    87    86    1
   120    82    81    1
   121    82    83    1
   122    93    91   ar
   123    93    95   ar
   124    76    74   ar
   125    91    92   ar
   126   103   104    2
   127   103   105   am
   128   124   125   ar
   129   124   122   ar
   130    72    74   ar
   131    72    71    1
   132    85    83   ar
   133    69    70    2
   134    69    77   am
   135    81    78    1
   136   142   141    1
   137    77    78    1
   138    95    96   ar
   139   125   123   ar
   140    83    84   ar
   141   141   143    1
   142   141   138    1
   143   122   120   ar
   144    78    79    1
   145    39    37   am
   146    92    94   ar
   147    37    38    2
   148    37    36    1
   149    96    94   ar
   150   123   121   ar
   151    36    35    1
   152   120   121   ar
   153   120   119    1
   154   138   139    1
   155   138   137    1
   156    35    32    1
   157    79    80    2
   158    32    31    1
   159    32    33    1
   160   139   140    2
   161    30    29    1
   162    25    26    1
   163   119   116    1
   164    34    33    2
   165    26    29    1
   166    26    27    1
   167   135   133   ar
   168   135   136   ar
   169    50    48    1
   170   129   128    2
   171   137   128   am
   172    49    48    1
   173   133   131   ar
   174    17    16    1
   175    17    18    2
   176    59    57   ar
   177    19    16    1
   178    19    20    1
   179    48    47    2
   180   115   116    1
   181    16    15    1
   182    28    27    2
   183   128   127    1
   184   136   134   ar
   185   116   117    1
   186    47    46    1
   187    57    58   ar
   188    57    56    1
   189   118   117    2
   190   131   130    1
   191   131   132   ar
   192    21    20   ar
   193    21    23   ar
   194    20    22   ar
   195   130   127    1
   196    46    45    1
   197   127   126    1
   198    56    55    1
   199   134   132   ar
   200    23    24   ar
   201    45    44    1
   202    22    24   ar
   203    12    10   ar
   204    12    14   ar
   205     9    10   ar
   206     9     7   ar
   207    44    41    1
   208    54    53    2
   209    40    41    1
   210    10     8   ar
   211    55    52    1
   212    14    13   ar
   213    53    52    1
   214    43    42    2
   215     7     6   ar
   216    41    42    1
   217    52    51    1
   218     8     6   ar
   219     8    11   ar
   220    13    11   ar
   221     6     5    1
   222     2     5    1
   223     2     1    1
   224     2     3    1
   225     3     4    2
