@<TRIPOS>MOLECULE
tmp/2am1A00.pdb
 204 196 0 0 0
SMALL
GASTEIGER

@<TRIPOS>ATOM
      1  N         14.4240   36.6070   51.4630 N.3    30  PHE30      -0.1227
      2  CA        14.5700   37.2200   52.7930 C.3    30  PHE30       0.1736
      3  C         13.8190   38.5590   52.8190 C.2    30  PHE30       0.2595
      4  O         13.7390   39.2200   53.8460 O.2    30  PHE30      -0.2718
      5  CB        16.0460   37.4530   53.1680 C.3    30  PHE30       0.0547
      6  CG        16.8150   38.2500   52.1580 C.ar   30  PHE30      -0.0202
      7  CD1       17.6500   37.6140   51.2460 C.ar   30  PHE30      -0.0042
      8  CD2       16.6840   39.6270   52.0950 C.ar   30  PHE30      -0.0042
      9  CE1       18.3410   38.3370   50.2860 C.ar   30  PHE30      -0.0003
     10  CE2       17.3660   40.3600   51.1400 C.ar   30  PHE30      -0.0003
     11  CZ        18.1980   39.7150   50.2320 C.ar   30  PHE30      -0.0000
     12  N         13.2800   38.9430   51.6670 N.am   31  ASP31      -0.1960
     13  CA        12.5170   40.1740   51.5170 C.3    31  ASP31       0.1840
     14  C         11.0350   39.7990   51.3760 C.2    31  ASP31       0.2623
     15  O         10.5650   39.4880   50.2740 O.2    31  ASP31      -0.2715
     16  CB        12.9910   40.9410   50.2730 C.3    31  ASP31       0.1450
     17  CG        12.2200   42.2400   50.0430 C.2    31  ASP31       0.3671
     18  OD1       11.3940   42.6190   50.8950 O.co2  31  ASP31      -0.2456
     19  OD2       12.4450   42.8930   49.0050 O.co2  31  ASP31      -0.2456
     20  N         10.3210   39.8150   52.5020 N.am   32  SER32      -0.1936
     21  CA         8.8940   39.4870   52.5520 C.3    32  SER32       0.2055
     22  C          8.1490   39.9970   51.3200 C.2    32  SER32       0.2642
     23  O          7.3260   39.3100   50.7300 O.2    32  SER32      -0.2714
     24  CB         8.2690   40.1130   53.7960 C.3    32  SER32       0.2130
     25  OG         8.3360   41.5290   53.7220 O.3    32  SER32      -0.2179
     26  N          8.4600   41.2240   50.9530 N.am   33  ARG33      -0.1977
     27  CA         7.8640   41.8950   49.8180 C.3    33  ARG33       0.1597
     28  C          8.1310   41.1620   48.4970 C.2    33  ARG33       0.2287
     29  O          7.6120   41.5440   47.4510 O.2    33  ARG33      -0.2864
     30  CB         8.4310   43.3180   49.7970 C.3    33  ARG33       0.0334
     31  CG         8.0560   44.2000   48.6400 C.3    33  ARG33       0.0492
     32  CD         8.7810   45.5430   48.7770 C.3    33  ARG33       0.2205
     33  NE        10.2030   45.3640   49.0830 N.pl3  33  ARG33      -0.0865
     34  CZ        11.1350   46.3030   48.9300 C.cat  33  ARG33       0.5346
     35  NH1       10.8080   47.5020   48.4680 N.pl3  33  ARG33       0.1354
     36  NH2       12.4020   46.0430   49.2370 N.pl3  33  ARG33       0.1354
     37  N         16.0240   37.5460   58.3110 N.3    44  LEU44      -0.1231
     38  CA        17.3620   37.9590   58.7140 C.3    44  LEU44       0.1693
     39  C         17.3930   39.2710   59.4730 C.2    44  LEU44       0.2592
     40  O         16.4340   40.0430   59.4340 O.2    44  LEU44      -0.2718
     41  CB        18.2550   38.0810   57.4820 C.3    44  LEU44       0.0284
     42  CG        18.3660   36.8230   56.6250 C.3    44  LEU44       0.0019
     43  CD1       19.0270   37.1720   55.3110 C.3    44  LEU44       0.0001
     44  CD2       19.1470   35.7520   57.3760 C.3    44  LEU44       0.0001
     45  N         18.5040   39.5120   60.1660 N.am   45  LYS45      -0.1966
     46  CA        18.6900   40.7520   60.9140 C.3    45  LYS45       0.1728
     47  C         19.0620   41.8460   59.9200 C.2    45  LYS45       0.2617
     48  O         20.1810   41.8740   59.4380 O.2    45  LYS45      -0.2715
     49  CB        19.8260   40.6160   61.9330 C.3    45  LYS45       0.0311
     50  CG        19.6280   39.5680   63.0090 C.3    45  LYS45       0.0038
     51  CD        20.7140   39.7010   64.0760 C.3    45  LYS45       0.0206
     52  CE        20.5130   38.7410   65.2480 C.3    45  LYS45       0.1093
     53  NZ        20.8580   37.3360   64.9210 N.3    45  LYS45      -0.1314
     54  N         18.1280   42.7350   59.6030 N.am   46  GLY46      -0.1940
     55  CA        18.4180   43.8130   58.6670 C.3    46  GLY46       0.2014
     56  C         18.1670   45.1390   59.3510 C.2    46  GLY46       0.2639
     57  O         18.5480   45.3150   60.5090 O.2    46  GLY46      -0.2714
     58  N         17.5350   46.0770   58.6470 N.am   47  ALA47      -0.1963
     59  CA        17.2100   47.3720   59.2470 C.3    47  ALA47       0.1728
     60  C         16.3360   47.0040   60.4430 C.2    47  ALA47       0.2616
     61  O         16.4370   47.5660   61.5270 O.2    47  ALA47      -0.2715
     62  CB        16.4370   48.2290   58.2600 C.3    47  ALA47       0.0334
     63  N         15.4810   46.0230   60.2160 N.am   48  ARG48      -0.1977
     64  CA        14.6100   45.5090   61.2460 C.3    48  ARG48       0.1597
     65  C         14.7770   44.0040   61.2180 C.2    48  ARG48       0.2287
     66  O         15.2600   43.4490   60.2290 O.2    48  ARG48      -0.2864
     67  CB        13.1600   45.8890   60.9550 C.3    48  ARG48       0.0334
     68  CG        12.8070   47.2650   61.4690 C.3    48  ARG48       0.0492
     69  CD        11.3490   47.5760   61.2610 C.3    48  ARG48       0.2205
     70  NE        10.8660   48.4390   62.3270 N.pl3  48  ARG48      -0.0865
     71  CZ        10.5450   48.0100   63.5400 C.cat  48  ARG48       0.5346
     72  NH1       10.6410   46.7240   63.8420 N.pl3  48  ARG48       0.1354
     73  NH2       10.1520   48.8740   64.4580 N.pl3  48  ARG48       0.1354
     74  N         13.9670   40.3360   60.5180 N.3    50  GLY50      -0.1225
     75  CA        13.0840   39.7170   59.5480 C.3    50  GLY50       0.1811
     76  C         11.9270   38.9440   60.1550 C.2    50  GLY50       0.2280
     77  O         10.8790   38.8000   59.5180 O.2    50  GLY50      -0.2866
     78  N          8.4150   40.2860   59.9700 N.3    53  PHE53      -0.1241
     79  CA         7.6940   40.0600   58.7190 C.3    53  PHE53       0.1605
     80  C          7.2300   38.6530   58.3900 C.2    53  PHE53       0.2264
     81  O          6.6460   38.4270   57.3340 O.2    53  PHE53      -0.2867
     82  CB         8.5200   40.6120   57.5650 C.3    53  PHE53       0.0534
     83  CG         8.8680   42.0530   57.7350 C.ar   53  PHE53      -0.0203
     84  CD1        9.7890   42.4470   58.6960 C.ar   53  PHE53      -0.0042
     85  CD2        8.2180   43.0270   56.9990 C.ar   53  PHE53      -0.0042
     86  CE1       10.0500   43.7850   58.9220 C.ar   53  PHE53      -0.0003
     87  CE2        8.4750   44.3650   57.2210 C.ar   53  PHE53      -0.0003
     88  CZ         9.3920   44.7450   58.1850 C.ar   53  PHE53      -0.0000
     89  N         25.1490   43.2070   43.2100 N.3   132  ASN132     -0.1225
     90  CA        26.2710   43.1190   44.1390 C.3   132  ASN132      0.1785
     91  C         25.9750   42.1480   45.2900 C.2   132  ASN132      0.2597
     92  O         26.4450   42.3450   46.4150 O.2   132  ASN132     -0.2718
     93  CB        26.5710   44.5130   44.6990 C.3   132  ASN132      0.1169
     94  CG        25.5500   44.9560   45.7320 C.2   132  ASN132      0.2627
     95  OD1       24.4000   44.5070   45.7230 O.2   132  ASN132     -0.2716
     96  ND2       25.9620   45.8480   46.6250 N.am  132  ASN132     -0.0877
     97  N         25.1840   41.1130   44.9980 N.am  133  TYR133     -0.1962
     98  CA        24.8140   40.0880   45.9790 C.3   133  TYR133      0.1771
     99  C         26.0050   39.1570   46.1940 C.2   133  TYR133      0.2620
    100  O         25.9090   37.9580   45.9620 O.2   133  TYR133     -0.2715
    101  CB        23.6170   39.2720   45.4660 C.3   133  TYR133      0.0574
    102  CG        22.2570   39.8380   45.8190 C.ar  133  TYR133     -0.0198
    103  CD1       21.2280   39.0020   46.2450 C.ar  133  TYR133     -0.0009
    104  CD2       22.0060   41.2090   45.7610 C.ar  133  TYR133     -0.0009
    105  CE1       19.9950   39.5120   46.6120 C.ar  133  TYR133      0.0417
    106  CE2       20.7780   41.7280   46.1220 C.ar  133  TYR133      0.0417
    107  CZ        19.7740   40.8770   46.5500 C.ar  133  TYR133      0.1957
    108  OH        18.5520   41.3880   46.9300 O.3   133  TYR133     -0.2866
    109  N         27.1080   39.7200   46.6700 N.am  134  ASN134     -0.1958
    110  CA        28.3500   38.9740   46.8460 C.3   134  ASN134      0.1819
    111  C         28.8730   38.7430   48.2670 C.2   134  ASN134      0.2621
    112  O         30.0560   38.5170   48.4350 O.2   134  ASN134     -0.2715
    113  CB        29.4520   39.6690   46.0460 C.3   134  ASN134      0.1195
    114  CG        29.8150   41.0260   46.6280 C.2   134  ASN134      0.2630
    115  OD1       29.2770   41.4210   47.6550 O.2   134  ASN134     -0.2716
    116  ND2       30.7320   41.7390   45.9830 N.am  134  ASN134     -0.0877
    117  N         28.0230   38.8230   49.2820 N.am  135  ASN135     -0.1972
    118  CA        28.5050   38.5990   50.6410 C.3   135  ASN135      0.1688
    119  C         27.8540   37.3790   51.2790 C.2   135  ASN135      0.2292
    120  O         27.2790   36.5510   50.5770 O.2   135  ASN135     -0.2864
    121  CB        28.2960   39.8440   51.5240 C.3   135  ASN135      0.1181
    122  CG        26.8330   40.2590   51.6610 C.2   135  ASN135      0.2629
    123  OD1       25.9020   39.5550   51.2610 O.2   135  ASN135     -0.2716
    124  ND2       26.6320   41.4200   52.2480 N.am  135  ASN135     -0.0877
    125  N         25.1730   36.9940   52.6230 N.3   137  ILE137     -0.1231
    126  CA        23.7320   36.8910   52.3910 C.3   137  ILE137      0.1692
    127  C         23.4830   36.6910   50.8830 C.2   137  ILE137      0.2592
    128  O         22.7120   35.8200   50.4800 O.2   137  ILE137     -0.2718
    129  CB        22.9480   38.1770   52.8260 C.3   137  ILE137      0.0266
    130  CG1       22.8330   38.2750   54.3470 C.3   137  ILE137      0.0019
    131  CG2       21.5600   38.1430   52.2360 C.3   137  ILE137      0.0020
    132  CD1       24.1380   38.4930   55.0430 C.3   137  ILE137      0.0001
    133  N         24.1600   37.5070   50.0740 N.am  138  GLY138     -0.1957
    134  CA        24.0220   37.4810   48.6280 C.3   138  GLY138      0.1869
    135  C         24.4410   36.2100   47.9260 C.2   138  GLY138      0.2309
    136  O         23.7120   35.6890   47.0930 O.2   138  GLY138     -0.2863
    137  N         20.1620   48.9320   45.2560 N.3   319  ASN319     -0.1240
    138  CA        19.8770   48.3950   46.5820 C.3   319  ASN319      0.1653
    139  C         19.1610   49.4570   47.4120 C.2   319  ASN319      0.2266
    140  O         19.6080   49.8300   48.4940 O.2   319  ASN319     -0.2867
    141  CB        21.1720   47.9610   47.2720 C.3   319  ASN319      0.1155
    142  CG        21.4840   46.4900   47.0600 C.2   319  ASN319      0.2627
    143  OD1       21.0880   45.8880   46.0580 O.2   319  ASN319     -0.2716
    144  ND2       22.2120   45.9050   48.0030 N.am  319  ASN319     -0.0877
    145  N         16.9060   49.8450   49.6940 N.3   321  ASN321     -0.1226
    146  CA        16.1250   49.3000   50.7890 C.3   321  ASN321      0.1770
    147  C         16.7720   49.7200   52.1000 C.2   321  ASN321      0.2439
    148  O         17.9330   50.0910   52.1390 O.2   321  ASN321     -0.2733
    149  CB        15.9880   47.7570   50.6810 C.3   321  ASN321      0.1168
    150  CG        17.3130   47.0070   50.8770 C.2   321  ASN321      0.2627
    151  OD1       17.7280   46.7180   52.0000 O.2   321  ASN321     -0.2716
    152  ND2       17.9750   46.6970   49.7760 N.am  321  ASN321     -0.0877
    153  N         16.0150   49.6800   53.1950 N.am  322  PRO322     -0.2718
    154  CA        16.5430   50.0730   54.4950 C.3   322  PRO322      0.1535
    155  C         17.8130   49.3910   55.0010 C.2   322  PRO322      0.2599
    156  O         18.6550   50.0440   55.6310 O.2   322  PRO322     -0.2715
    157  CB        15.3380   49.8770   55.4290 C.3   322  PRO322      0.0310
    158  CG        14.5270   48.8550   54.7480 C.3   322  PRO322      0.0237
    159  CD        14.6100   49.2570   53.3100 C.3   322  PRO322      0.0939
    160  N         17.9540   48.0940   54.7480 N.am  323  THR323     -0.1937
    161  CA        19.1400   47.3790   55.2140 C.3   323  THR323      0.2028
    162  C         20.3610   47.8700   54.4610 C.2   323  THR323      0.2642
    163  O         21.3920   48.1560   55.0480 O.2   323  THR323     -0.2714
    164  CB        19.0240   45.8650   54.9980 C.3   323  THR323      0.1808
    165  OG1       17.8420   45.3670   55.6370 O.3   323  THR323     -0.2208
    166  CG2       20.2400   45.1630   55.5890 C.3   323  THR323      0.0379
    167  N         20.2210   47.9620   53.1480 N.am  324  ALA324     -0.1977
    168  CA        21.2800   48.4400   52.2790 C.3   324  ALA324      0.1597
    169  C         21.7280   49.8300   52.7350 C.2   324  ALA324      0.2287
    170  O         22.9250   50.1120   52.8100 O.2   324  ALA324     -0.2864
    171  CB        20.7770   48.4970   50.8430 C.3   324  ALA324      0.0319
    172  N         23.5320   49.6270   55.9920 N.3   326  LEU326     -0.1245
    173  CA        24.8590   49.0730   55.7500 C.3   326  LEU326      0.1561
    174  C         25.7910   50.0750   55.0700 C.2   326  LEU326      0.2260
    175  O         26.9510   50.2090   55.4550 O.2   326  LEU326     -0.2867
    176  CB        24.7590   47.7850   54.9210 C.3   326  LEU326      0.0270
    177  CG        24.1030   46.6030   55.6530 C.3   326  LEU326      0.0019
    178  CD1       23.9580   45.4250   54.7130 C.3   326  LEU326      0.0001
    179  CD2       24.9210   46.2270   56.8830 C.3   326  LEU326      0.0001
    180  N          8.6960   51.0200   49.5810 N.3   351  LEU351     -0.1245
    181  CA         8.9670   50.2640   50.7880 C.3   351  LEU351      0.1561
    182  C          7.6690   49.7210   51.3270 C.2   351  LEU351      0.2260
    183  O          7.6650   48.8460   52.1910 O.2   351  LEU351     -0.2867
    184  CB         9.6390   51.1310   51.8490 C.3   351  LEU351      0.0270
    185  CG        11.1290   51.3790   51.6340 C.3   351  LEU351      0.0019
    186  CD1       11.7300   51.9110   52.9300 C.3   351  LEU351      0.0001
    187  CD2       11.8150   50.0730   51.2160 C.3   351  LEU351      0.0001
    188  N          4.8850   50.8200   55.1230 N.3   354  GLN354     -0.1245
    189  CA         5.7690   50.9890   56.2690 C.3   354  GLN354      0.1566
    190  C          6.9560   51.9120   55.9420 C.2   354  GLN354      0.2260
    191  O          7.8250   52.1450   56.7800 O.2   354  GLN354     -0.2867
    192  CB         6.2690   49.6170   56.7280 C.3   354  GLN354      0.0367
    193  CG         6.2160   49.4110   58.2290 C.3   354  GLN354      0.0905
    194  CD         4.8000   49.5000   58.7740 C.2   354  GLN354      0.2608
    195  OE1        4.1260   50.5230   58.6260 O.2   354  GLN354     -0.2717
    196  NE2        4.3400   48.4260   59.4090 N.am  354  GLN354     -0.0878
    197  N         10.2920   52.9660   58.2580 N.3   358  LEU358     -0.1245
    198  CA        11.5610   52.3870   57.8660 C.3   358  LEU358      0.1561
    199  C         12.6330   53.4530   57.6880 C.2   358  LEU358      0.2260
    200  O         13.8030   53.2110   57.9700 O.2   358  LEU358     -0.2867
    201  CB        11.3830   51.5700   56.5940 C.3   358  LEU358      0.0270
    202  CG        10.3660   50.4440   56.8030 C.3   358  LEU358      0.0019
    203  CD1        9.9890   49.8030   55.4660 C.3   358  LEU358      0.0001
    204  CD2       10.9400   49.4300   57.7720 C.3   358  LEU358      0.0001
@<TRIPOS>BOND
     1    89    90    1
     2    90    93    1
     3    90    91    1
     4    93    94    1
     5    97    91   am
     6    97    98    1
     7   137   138    1
     8    91    92    2
     9   101   102    1
    10   101    98    1
    11    95    94    2
    12    94    96   am
    13   104   102   ar
    14   104   106   ar
    15   102   103   ar
    16   100    99    2
    17    98    99    1
    18   116   114   am
    19   113   114    1
    20   113   110    1
    21   143   142    2
    22   106   107   ar
    23    99   109   am
    24   103   105   ar
    25   107   105   ar
    26   107   108    1
    27   138   141    1
    28   138   139    1
    29   114   115    2
    30   109   110    1
    31   110   111    1
    32   142   141    1
    33   142   144   am
    34   136   135    2
    35   139   140    2
    36    29    28    2
    37   135   134    1
    38   111   112    2
    39   111   117   am
    40    35    34    1
    41    28    27    1
    42   134   133    1
    43    31    32    1
    44    31    30    1
    45    32    33    1
    46    34    33    2
    47    34    36    1
    48    19    17   ar
    49   117   118    1
    50   180   181    1
    51   145   146    1
    52   152   150   am
    53    30    27    1
    54    27    26    1
    55    17    16    1
    56    17    18   ar
    57   133   127   am
    58    11     9   ar
    59    11    10   ar
    60    16    13    1
    61    15    14    2
    62     9     7   ar
    63   128   127    2
    64   120   119    2
    65   118   119    1
    66   118   121    1
    67   149   146    1
    68   149   150    1
    69    23    22    2
    70   181   182    1
    71   181   184    1
    72   146   147    1
    73   171   168    1
    74   150   151    2
    75   127   126    1
    76    26    22   am
    77    10     8   ar
    78   187   185    1
    79     7     6   ar
    80   123   122    2
    81    22    21    1
    82   182   183    2
    83    14    13    1
    84    14    20   am
    85     1     2    1
    86    13    12    1
    87   121   122    1
    88   185   184    1
    89   185   186    1
    90   122   124   am
    91    12     3   am
    92     8     6   ar
    93   147   148    2
    94   147   153   am
    95     6     5    1
    96   131   129    1
    97   168   169    1
    98   168   167    1
    99   126   125    1
   100   126   129    1
   101    20    21    1
   102    21    24    1
   103   169   170    2
   104     2     3    1
   105     2     5    1
   106     3     4    2
   107   129   130    1
   108   167   162   am
   109   153   159    1
   110   153   154    1
   111   159   158    1
   112    25    24    1
   113   130   132    1
   114   162   163    2
   115   162   161    1
   116   154   155    1
   117   154   157    1
   118   178   177    1
   119   160   155   am
   120   160   161    1
   121   158   157    1
   122   176   177    1
   123   176   173    1
   124   164   161    1
   125   164   166    1
   126   164   165    1
   127   155   156    2
   128   174   175    2
   129   174   173    1
   130   188   189    1
   131    43    42    1
   132   203   202    1
   133   177   179    1
   134   173   172    1
   135   190   189    1
   136   190   191    2
   137   189   192    1
   138   201   202    1
   139   201   198    1
   140    42    44    1
   141    42    41    1
   142   192   193    1
   143   202   204    1
   144    85    87   ar
   145    85    83   ar
   146    87    88   ar
   147    81    80    2
   148    41    38    1
   149    82    83    1
   150    82    79    1
   151   199   198    1
   152   199   200    2
   153    83    84   ar
   154   198   197    1
   155    88    86   ar
   156   193   194    1
   157    62    59    1
   158    37    38    1
   159    80    79    1
   160   195   194    2
   161    58    59    1
   162    58    56   am
   163    55    56    1
   164    55    54    1
   165    84    86   ar
   166    38    39    1
   167    79    78    1
   168   194   196   am
   169    59    60    1
   170    56    57    2
   171    40    39    2
   172    48    47    2
   173    39    45   am
   174    77    76    2
   175    75    76    1
   176    75    74    1
   177    54    47   am
   178    47    46    1
   179    45    46    1
   180    63    60   am
   181    63    64    1
   182    66    65    2
   183    60    61    2
   184    46    49    1
   185    67    64    1
   186    67    68    1
   187    65    64    1
   188    69    68    1
   189    69    70    1
   190    49    50    1
   191    70    71    2
   192    50    51    1
   193    71    72    1
   194    71    73    1
   195    51    52    1
   196    53    52    1
