@<TRIPOS>MOLECULE
tmp/2am2A00.pdb
 191 184 0 0 0
SMALL
GASTEIGER

@<TRIPOS>ATOM
      1  N         14.7060   36.4270   52.5570 N.3    30  PHE30      -0.1227
      2  CA        15.0070   36.9670   53.8810 C.3    30  PHE30       0.1736
      3  C         14.2430   38.2790   53.9960 C.2    30  PHE30       0.2595
      4  O         14.1190   38.8740   55.0700 O.2    30  PHE30      -0.2718
      5  CB        16.5130   37.1980   54.0450 C.3    30  PHE30       0.0547
      6  CG        17.1560   37.9400   52.9010 C.ar   30  PHE30      -0.0202
      7  CD1       18.1780   37.3580   52.1710 C.ar   30  PHE30      -0.0042
      8  CD2       16.7550   39.2210   52.5680 C.ar   30  PHE30      -0.0042
      9  CE1       18.7800   38.0370   51.1450 C.ar   30  PHE30      -0.0003
     10  CE2       17.3560   39.9050   51.5370 C.ar   30  PHE30      -0.0003
     11  CZ        18.3640   39.3150   50.8260 C.ar   30  PHE30      -0.0000
     12  N         13.7300   38.7010   52.8470 N.am   31  ASP31      -0.1960
     13  CA        12.9540   39.9210   52.6950 C.3    31  ASP31       0.1840
     14  C         11.4830   39.4890   52.5740 C.2    31  ASP31       0.2623
     15  O         10.9830   39.2530   51.4760 O.2    31  ASP31      -0.2715
     16  CB        13.4520   40.6620   51.4360 C.3    31  ASP31       0.1450
     17  CG        12.5740   41.8340   51.0390 C.2    31  ASP31       0.3671
     18  OD1       11.8910   42.4060   51.9170 O.co2  31  ASP31      -0.2456
     19  OD2       12.5810   42.1980   49.8430 O.co2  31  ASP31      -0.2456
     20  N         10.8150   39.3700   53.7220 N.am   32  SER32      -0.1936
     21  CA         9.4150   38.9480   53.8010 C.3    32  SER32       0.2055
     22  C          8.5990   39.4980   52.6520 C.2    32  SER32       0.2642
     23  O          7.6830   38.8480   52.1500 O.2    32  SER32      -0.2714
     24  CB         8.8040   39.4110   55.1250 C.3    32  SER32       0.2130
     25  OG         8.9270   40.8140   55.2710 O.3    32  SER32      -0.2179
     26  N          8.9580   40.7020   52.2270 N.am   33  ARG33      -0.1977
     27  CA         8.2730   41.3850   51.1410 C.3    33  ARG33       0.1597
     28  C          8.5100   40.7040   49.7870 C.2    33  ARG33       0.2287
     29  O          7.9310   41.0960   48.7780 O.2    33  ARG33      -0.2864
     30  CB         8.7390   42.8440   51.1190 C.3    33  ARG33       0.0334
     31  CG         8.1230   43.7150   50.0520 C.3    33  ARG33       0.0492
     32  CD         8.8820   45.0130   50.0040 C.3    33  ARG33       0.2205
     33  NE        10.2560   44.7790   50.4360 N.pl3  33  ARG33      -0.0865
     34  CZ        11.2930   45.5610   50.1440 C.cat  33  ARG33       0.5346
     35  NH1       11.1280   46.6520   49.4010 N.pl3  33  ARG33       0.1354
     36  NH2       12.4990   45.2480   50.6040 N.pl3  33  ARG33       0.1354
     37  N         16.5230   37.1920   59.1350 N.3    44  LEU44      -0.1231
     38  CA        17.8790   37.6320   59.4280 C.3    44  LEU44       0.1693
     39  C         17.9280   38.9120   60.2690 C.2    44  LEU44       0.2592
     40  O         16.9200   39.5990   60.4430 O.2    44  LEU44      -0.2718
     41  CB        18.6270   37.8560   58.1140 C.3    44  LEU44       0.0284
     42  CG        18.8360   36.6480   57.1990 C.3    44  LEU44       0.0019
     43  CD1       19.2680   37.1170   55.8250 C.3    44  LEU44       0.0001
     44  CD2       19.8730   35.7200   57.8080 C.3    44  LEU44       0.0001
     45  N         19.1120   39.2200   60.7910 N.am   45  LYS45      -0.1966
     46  CA        19.3220   40.4280   61.5860 C.3    45  LYS45       0.1728
     47  C         19.5520   41.6180   60.6380 C.2    45  LYS45       0.2617
     48  O         20.6810   41.9150   60.2690 O.2    45  LYS45      -0.2715
     49  CB        20.5390   40.2540   62.5120 C.3    45  LYS45       0.0311
     50  CG        20.3650   39.2150   63.6340 C.3    45  LYS45       0.0038
     51  CD        21.5170   39.3100   64.6490 C.3    45  LYS45       0.0206
     52  CE        21.2220   38.5960   65.9740 C.3    45  LYS45       0.1093
     53  NZ        21.1040   37.1070   65.8810 N.3    45  LYS45      -0.1314
     54  N         18.4780   42.2930   60.2380 N.am   46  GLY46      -0.1940
     55  CA        18.6070   43.4210   59.3270 C.3    46  GLY46       0.2014
     56  C         18.4960   44.7410   60.0480 C.2    46  GLY46       0.2639
     57  O         18.8960   44.8350   61.1970 O.2    46  GLY46      -0.2714
     58  N         17.9790   45.7680   59.3790 N.am   47  ALA47      -0.1963
     59  CA        17.8070   47.0770   60.0160 C.3    47  ALA47       0.1728
     60  C         16.9260   46.8130   61.2300 C.2    47  ALA47       0.2616
     61  O         17.1560   47.3290   62.3160 O.2    47  ALA47      -0.2715
     62  CB        17.1300   48.0250   59.0650 C.3    47  ALA47       0.0334
     63  N         15.9050   45.9940   61.0050 N.am   48  ARG48      -0.1977
     64  CA        14.9810   45.5400   62.0370 C.3    48  ARG48       0.1597
     65  C         15.1280   44.0190   61.9660 C.2    48  ARG48       0.2287
     66  O         15.3920   43.4780   60.8910 O.2    48  ARG48      -0.2864
     67  CB        13.5420   45.9420   61.7010 C.3    48  ARG48       0.0334
     68  CG        13.2900   47.4230   61.7990 C.3    48  ARG48       0.0492
     69  CD        11.8100   47.7410   61.7730 C.3    48  ARG48       0.2205
     70  NE        11.4270   48.5660   62.9170 N.pl3  48  ARG48      -0.0865
     71  CZ        11.2130   48.1010   64.1440 C.cat  48  ARG48       0.5346
     72  NH1       11.3350   46.8090   64.4080 N.pl3  48  ARG48       0.1354
     73  NH2       10.8850   48.9360   65.1150 N.pl3  48  ARG48       0.1354
     74  N         14.5710   40.1530   61.4230 N.3    50  GLY50      -0.1225
     75  CA        13.7090   39.4470   60.4950 C.3    50  GLY50       0.1811
     76  C         12.5010   38.7830   61.1190 C.2    50  GLY50       0.2280
     77  O         11.3980   38.8760   60.5820 O.2    50  GLY50      -0.2866
     78  N          8.9710   39.6940   61.0900 N.3    53  PHE53      -0.1241
     79  CA         8.2140   39.6650   59.8480 C.3    53  PHE53       0.1605
     80  C          7.7580   38.2760   59.4540 C.2    53  PHE53       0.2264
     81  O          7.2800   38.0600   58.3290 O.2    53  PHE53      -0.2867
     82  CB         9.0450   40.2590   58.7160 C.3    53  PHE53       0.0534
     83  CG         9.3990   41.7060   58.9150 C.ar   53  PHE53      -0.0203
     84  CD1       10.0050   42.1360   60.0840 C.ar   53  PHE53      -0.0042
     85  CD2        9.1540   42.6340   57.9160 C.ar   53  PHE53      -0.0042
     86  CE1       10.3600   43.4550   60.2540 C.ar   53  PHE53      -0.0003
     87  CE2        9.5100   43.9580   58.0810 C.ar   53  PHE53      -0.0003
     88  CZ        10.1140   44.3680   59.2530 C.ar   53  PHE53      -0.0000
     89  N         25.2820   42.6850   43.8310 N.3   132  ASN132     -0.1225
     90  CA        26.3840   42.7250   44.7850 C.3   132  ASN132      0.1785
     91  C         26.0860   41.7770   45.9400 C.2   132  ASN132      0.2597
     92  O         26.5260   41.9750   47.0710 O.2   132  ASN132     -0.2718
     93  CB        26.6120   44.1520   45.3040 C.3   132  ASN132      0.1169
     94  CG        25.4400   44.6830   46.1010 C.2   132  ASN132      0.2627
     95  OD1       24.3060   44.7090   45.6190 O.2   132  ASN132     -0.2716
     96  ND2       25.7090   45.1200   47.3280 N.am  132  ASN132     -0.0877
     97  N         25.3210   40.7410   45.6300 N.am  133  TYR133     -0.1962
     98  CA        24.9680   39.7160   46.6020 C.3   133  TYR133      0.1771
     99  C         26.2060   38.8380   46.7530 C.2   133  TYR133      0.2620
    100  O         26.1340   37.6300   46.5650 O.2   133  TYR133     -0.2715
    101  CB        23.8010   38.8750   46.0660 C.3   133  TYR133      0.0574
    102  CG        22.4200   39.2550   46.5770 C.ar  133  TYR133     -0.0198
    103  CD1       21.8140   38.5250   47.5930 C.ar  133  TYR133     -0.0009
    104  CD2       21.7080   40.3120   46.0220 C.ar  133  TYR133     -0.0009
    105  CE1       20.5460   38.8270   48.0340 C.ar  133  TYR133      0.0417
    106  CE2       20.4370   40.6210   46.4620 C.ar  133  TYR133      0.0417
    107  CZ        19.8590   39.8720   47.4710 C.ar  133  TYR133      0.1957
    108  OH        18.5970   40.1720   47.9330 O.3   133  TYR133     -0.2866
    109  N         27.3380   39.4500   47.0850 N.am  134  ASN134     -0.1958
    110  CA        28.5810   38.7070   47.2200 C.3   134  ASN134      0.1819
    111  C         29.1320   38.6470   48.6300 C.2   134  ASN134      0.2621
    112  O         30.3410   38.4950   48.8180 O.2   134  ASN134     -0.2715
    113  CB        29.6560   39.2810   46.2820 C.3   134  ASN134      0.1195
    114  CG        30.1870   40.6430   46.7300 C.2   134  ASN134      0.2630
    115  OD1       29.8680   41.1390   47.8020 O.2   134  ASN134     -0.2716
    116  ND2       31.0160   41.2440   45.8960 N.am  134  ASN134     -0.0877
    117  N         28.2510   38.7610   49.6160 N.am  135  ASN135     -0.1972
    118  CA        28.6690   38.7270   51.0160 C.3   135  ASN135      0.1688
    119  C         28.1110   37.4870   51.7160 C.2   135  ASN135      0.2292
    120  O         27.4820   36.6430   51.0860 O.2   135  ASN135     -0.2864
    121  CB        28.1770   39.9820   51.7270 C.3   135  ASN135      0.1181
    122  CG        26.6890   39.9800   51.8980 C.2   135  ASN135      0.2629
    123  OD1       25.9520   39.6310   50.9760 O.2   135  ASN135     -0.2716
    124  ND2       26.2290   40.3620   53.0760 N.am  135  ASN135     -0.0877
    125  N         25.5810   36.8990   53.1140 N.3   137  ILE137     -0.1245
    126  CA        24.1340   36.6860   52.9780 C.3   137  ILE137      0.1561
    127  C         23.8230   36.4470   51.5090 C.2   137  ILE137      0.2260
    128  O         23.0370   35.5770   51.1570 O.2   137  ILE137     -0.2867
    129  CB        23.2790   37.9150   53.4260 C.3   137  ILE137      0.0252
    130  CG1       23.1880   38.0160   54.9540 C.3   137  ILE137      0.0019
    131  CG2       21.8790   37.7890   52.8540 C.3   137  ILE137      0.0019
    132  CD1       24.4030   38.6170   55.6170 C.3   137  ILE137      0.0001
    133  N         20.2560   48.7140   45.9270 N.3   319  ASN319     -0.1240
    134  CA        20.0750   48.2370   47.2980 C.3   319  ASN319      0.1653
    135  C         19.3530   49.2720   48.1530 C.2   319  ASN319      0.2266
    136  O         19.8230   49.6390   49.2300 O.2   319  ASN319     -0.2867
    137  CB        21.4240   47.9140   47.9480 C.3   319  ASN319      0.1155
    138  CG        21.8950   46.5120   47.6460 C.2   319  ASN319      0.2627
    139  OD1       21.9040   46.0860   46.4930 O.2   319  ASN319     -0.2716
    140  ND2       22.2980   45.7870   48.6830 N.am  319  ASN319     -0.0877
    141  N         17.2130   49.7830   50.6080 N.3   321  ASN321     -0.1226
    142  CA        16.4990   49.1750   51.7130 C.3   321  ASN321      0.1770
    143  C         17.2390   49.5390   52.9820 C.2   321  ASN321      0.2439
    144  O         18.4330   49.8210   52.9440 O.2   321  ASN321     -0.2733
    145  CB        16.4530   47.6510   51.5560 C.3   321  ASN321      0.1168
    146  CG        17.7920   46.9980   51.8330 C.2   321  ASN321      0.2627
    147  OD1       18.1760   46.7840   52.9850 O.2   321  ASN321     -0.2716
    148  ND2       18.5170   46.6910   50.7750 N.am  321  ASN321     -0.0877
    149  N         16.5290   49.5420   54.1220 N.am  322  PRO322     -0.2718
    150  CA        17.0310   49.8640   55.4500 C.3   322  PRO322      0.1535
    151  C         18.3680   49.2360   55.7750 C.2   322  PRO322      0.2599
    152  O         19.3610   49.9430   55.9500 O.2   322  PRO322     -0.2715
    153  CB        15.9130   49.3700   56.3490 C.3   322  PRO322      0.0310
    154  CG        14.7120   49.7080   55.5570 C.3   322  PRO322      0.0237
    155  CD        15.0960   49.2120   54.1880 C.3   322  PRO322      0.0939
    156  N         18.4000   47.9110   55.8490 N.am  323  THR323     -0.1937
    157  CA        19.6360   47.2040   56.1700 C.3   323  THR323      0.2028
    158  C         20.8140   47.6470   55.2900 C.2   323  THR323      0.2642
    159  O         21.9230   47.8490   55.7820 O.2   323  THR323     -0.2714
    160  CB        19.4540   45.6790   56.0360 C.3   323  THR323      0.1808
    161  OG1       18.4990   45.2140   57.0010 O.3   323  THR323     -0.2208
    162  CG2       20.7720   44.9770   56.2740 C.3   323  THR323      0.0379
    163  N         20.5690   47.7980   53.9930 N.am  324  ALA324     -0.1977
    164  CA        21.6090   48.2280   53.0690 C.3   324  ALA324      0.1597
    165  C         22.1780   49.5480   53.5350 C.2   324  ALA324      0.2287
    166  O         23.3870   49.6820   53.7190 O.2   324  ALA324     -0.2864
    167  CB        21.0500   48.3820   51.6740 C.3   324  ALA324      0.0319
    168  N         24.0500   49.5160   56.7780 N.3   326  LEU326     -0.1245
    169  CA        25.4210   49.0300   56.6600 C.3   326  LEU326      0.1561
    170  C         26.2370   50.0890   55.9380 C.2   326  LEU326      0.2260
    171  O         27.2500   50.5680   56.4520 O.2   326  LEU326     -0.2867
    172  CB        25.4750   47.7220   55.8770 C.3   326  LEU326      0.0270
    173  CG        24.8730   46.4910   56.5570 C.3   326  LEU326      0.0019
    174  CD1       25.3110   45.2490   55.8070 C.3   326  LEU326      0.0001
    175  CD2       25.3190   46.4160   58.0130 C.3   326  LEU326      0.0001
    176  N          9.2860   50.7490   50.7610 N.3   351  LEU351     -0.1245
    177  CA         9.4510   50.0600   52.0280 C.3   351  LEU351      0.1561
    178  C          8.0720   49.6320   52.4960 C.2   351  LEU351      0.2260
    179  O          7.9330   48.8070   53.4020 O.2   351  LEU351     -0.2867
    180  CB        10.0970   50.9690   53.0680 C.3   351  LEU351      0.0270
    181  CG        11.4930   51.4520   52.6810 C.3   351  LEU351      0.0019
    182  CD1       12.2370   51.9060   53.9240 C.3   351  LEU351      0.0001
    183  CD2       12.2420   50.3220   51.9880 C.3   351  LEU351      0.0001
    184  N         10.4190   52.8580   59.1510 N.3   358  LEU358     -0.1245
    185  CA        11.6670   52.2860   58.6700 C.3   358  LEU358      0.1561
    186  C         12.7950   53.2910   58.5430 C.2   358  LEU358      0.2260
    187  O         13.9260   53.0130   58.9370 O.2   358  LEU358     -0.2867
    188  CB        11.4330   51.5860   57.3390 C.3   358  LEU358      0.0270
    189  CG        10.6620   50.2640   57.4540 C.3   358  LEU358      0.0019
    190  CD1       10.3490   49.7410   56.0600 C.3   358  LEU358      0.0001
    191  CD2       11.4730   49.2480   58.2780 C.3   358  LEU358      0.0001
@<TRIPOS>BOND
     1    89    90    1
     2    90    93    1
     3    90    91    1
     4    93    94    1
     5    95    94    2
     6    97    91   am
     7    97    98    1
     8   116   114   am
     9   133   134    1
    10    91    92    2
    11   104   106   ar
    12   104   102   ar
    13   101   102    1
    14   101    98    1
    15    94    96   am
    16   113   114    1
    17   113   110    1
    18   106   107   ar
    19   139   138    2
    20   100    99    2
    21   102   103   ar
    22    98    99    1
    23   114   115    2
    24    99   109   am
    25   109   110    1
    26   110   111    1
    27   134   137    1
    28   134   135    1
    29   107   108    1
    30   107   105   ar
    31   103   105   ar
    32   138   137    1
    33   138   140   am
    34   135   136    2
    35   111   112    2
    36   111   117   am
    37    29    28    2
    38    35    34    1
    39   117   118    1
    40    28    27    1
    41    19    17   ar
    42    32    31    1
    43    32    33    1
    44    31    30    1
    45    34    33    2
    46    34    36    1
    47   141   142    1
    48   176   177    1
    49   148   146   am
    50    11     9   ar
    51    11    10   ar
    52   123   122    2
    53   118   119    1
    54   118   121    1
    55    17    16    1
    56    17    18   ar
    57   120   119    2
    58    30    27    1
    59    27    26    1
    60     9     7   ar
    61   128   127    2
    62    16    13    1
    63    15    14    2
    64   127   126    1
    65    10     8   ar
    66   145   142    1
    67   145   146    1
    68   167   164    1
    69   142   143    1
    70   121   122    1
    71   146   147    2
    72   122   124   am
    73   183   181    1
    74   177   178    1
    75   177   180    1
    76    23    22    2
    77     7     6   ar
    78    26    22   am
    79   178   179    2
    80     1     2    1
    81     8     6   ar
    82    14    13    1
    83    14    20   am
    84    22    21    1
    85   181   180    1
    86   181   182    1
    87    13    12    1
    88    12     3   am
    89   131   129    1
    90     6     5    1
    91   144   143    2
    92   126   125    1
    93   126   129    1
    94   143   149   am
    95   164   165    1
    96   164   163    1
    97   129   130    1
    98   165   166    2
    99    20    21    1
   100    21    24    1
   101     2     3    1
   102     2     5    1
   103   163   158   am
   104     3     4    2
   105   149   155    1
   106   149   150    1
   107   155   154    1
   108   130   132    1
   109    24    25    1
   110   158   159    2
   111   158   157    1
   112   150   151    1
   113   150   153    1
   114   154   153    1
   115   151   156   am
   116   151   152    2
   117   174   173    1
   118    43    42    1
   119   156   157    1
   120   172   173    1
   121   172   169    1
   122   170   171    2
   123   170   169    1
   124   160   157    1
   125   160   162    1
   126   160   161    1
   127   190   189    1
   128   173   175    1
   129   169   168    1
   130    42    44    1
   131    42    41    1
   132   188   189    1
   133   188   185    1
   134   189   191    1
   135    85    87   ar
   136    85    83   ar
   137    87    88   ar
   138    41    38    1
   139    81    80    2
   140   186   185    1
   141   186   187    2
   142   185   184    1
   143    82    83    1
   144    82    79    1
   145    83    84   ar
   146    62    59    1
   147    37    38    1
   148    88    86   ar
   149    55    56    1
   150    55    54    1
   151    58    59    1
   152    58    56   am
   153    38    39    1
   154    80    79    1
   155    79    78    1
   156    59    60    1
   157    56    57    2
   158    84    86   ar
   159    54    47   am
   160    39    40    2
   161    39    45   am
   162    48    47    2
   163    75    76    1
   164    75    74    1
   165    77    76    2
   166    47    46    1
   167    45    46    1
   168    66    65    2
   169    63    60   am
   170    63    64    1
   171    60    61    2
   172    46    49    1
   173    67    68    1
   174    67    64    1
   175    69    68    1
   176    69    70    1
   177    65    64    1
   178    49    50    1
   179    70    71    2
   180    50    51    1
   181    71    72    1
   182    71    73    1
   183    51    52    1
   184    53    52    1
