@<TRIPOS>MOLECULE
tmp/2am3A00.pdb
 202 198 0 0 0
SMALL
GASTEIGER

@<TRIPOS>ATOM
      1  N         -3.6820   12.0050    7.8520 N.3     8  ILE8       -0.1231
      2  CA        -3.6270   13.4020    7.4130 C.3     8  ILE8        0.1692
      3  C         -2.3790   13.5790    6.5580 C.2     8  ILE8        0.2592
      4  O         -1.2660   13.4040    7.0460 O.2     8  ILE8       -0.2718
      5  CB        -3.5520   14.3300    8.6370 C.3     8  ILE8        0.0266
      6  CG1       -4.7670   14.0740    9.5390 C.3     8  ILE8        0.0019
      7  CG2       -3.4710   15.8190    8.1850 C.3     8  ILE8        0.0020
      8  CD1       -6.1020   14.2770    8.8440 C.3     8  ILE8        0.0001
      9  N         -2.5750   13.9380    5.2870 N.am    9  ALA9       -0.1966
     10  CA        -1.4690   14.1040    4.3420 C.3     9  ALA9        0.1728
     11  C         -1.4950   15.4580    3.6650 C.2     9  ALA9        0.2616
     12  O         -2.4880   16.1690    3.7350 O.2     9  ALA9       -0.2715
     13  CB        -1.5230   13.0060    3.2690 C.3     9  ALA9        0.0334
     14  N         -0.3950   15.7910    2.9910 N.am   10  CYS10      -0.1954
     15  CA        -0.2800   17.0670    2.2850 C.3    10  CYS10       0.1843
     16  C          0.6750   16.9900    1.0910 C.2    10  CYS10       0.2625
     17  O          0.2480   16.7300   -0.0380 O.2    10  CYS10      -0.2714
     18  CB         0.1530   18.1590    3.2750 C.3    10  CYS10       0.0997
     19  SG         0.6480   19.8090    2.6450 S.3    10  CYS10      -0.0797
     20  N          1.9680   17.1680    1.3420 N.am   11  ASP11      -0.1957
     21  CA         2.9220   17.2010    0.2400 C.3    11  ASP11       0.1840
     22  C          4.2110   16.4260    0.4230 C.2    11  ASP11       0.2621
     23  O          5.2370   16.7660   -0.1730 O.2    11  ASP11      -0.2715
     24  CB         3.2420   18.6760   -0.0910 C.3    11  ASP11       0.1450
     25  CG         3.7220   19.4600    1.1200 C.2    11  ASP11       0.3671
     26  OD1        3.8530   20.7100    1.0260 O.co2  11  ASP11      -0.2456
     27  OD2        3.9800   18.8410    2.1720 O.co2  11  ASP11      -0.2456
     28  N          4.1700   15.3880    1.2520 N.am   12  ARG12      -0.1977
     29  CA         5.3370   14.5450    1.4650 C.3    12  ARG12       0.1597
     30  C          4.9820   13.1740    0.9030 C.2    12  ARG12       0.2287
     31  O          4.0080   12.5500    1.3400 O.2    12  ARG12      -0.2864
     32  CB         5.6700   14.4500    2.9630 C.3    12  ARG12       0.0334
     33  CG         6.2940   15.7210    3.5360 C.3    12  ARG12       0.0492
     34  CD         6.6260   15.6070    5.0300 C.3    12  ARG12       0.2205
     35  NE         5.4370   15.4450    5.8660 N.pl3  12  ARG12      -0.0865
     36  CZ         5.3390   15.8600    7.1250 C.cat  12  ARG12       0.5346
     37  NH1        6.3620   16.4740    7.7120 N.pl3  12  ARG12       0.1354
     38  NH2        4.2140   15.6700    7.8020 N.pl3  12  ARG12       0.1354
     39  N         -4.4460   17.3590    1.9260 N.3    39  ASP39      -0.1225
     40  CA        -4.6010   18.8000    1.7760 C.3    39  ASP39       0.1805
     41  C         -3.5410   19.1910    0.7340 C.2    39  ASP39       0.2598
     42  O         -2.8860   18.3240    0.1480 O.2    39  ASP39      -0.2718
     43  CB        -4.3040   19.4450    3.1410 C.3    39  ASP39       0.1424
     44  CG        -4.5700   20.9310    3.1790 C.2    39  ASP39       0.3668
     45  OD1       -5.2720   21.4430    2.2870 O.co2  39  ASP39      -0.2456
     46  OD2       -4.0800   21.5820    4.1260 O.co2  39  ASP39      -0.2456
     47  N         -3.4230   20.4790    0.4390 N.am   40  CYS40      -0.1970
     48  CA        -2.3450   20.9350   -0.4320 C.3    40  CYS40       0.1712
     49  C         -2.3630   20.6910   -1.9360 C.2    40  CYS40       0.2296
     50  O         -1.8180   21.4980   -2.6790 O.2    40  CYS40      -0.2864
     51  CB        -1.0440   20.4010    0.1670 C.3    40  CYS40       0.0983
     52  SG        -1.0510   20.6900    1.9780 S.3    40  CYS40      -0.0798
     53  N          1.1770   28.0940    7.9410 N.3    78  GLY78      -0.1210
     54  CA         1.0750   26.6360    7.8970 C.3    78  GLY78       0.1956
     55  C          0.2290   26.0650    9.0330 C.2    78  GLY78       0.2611
     56  O         -0.4890   25.0760    8.8480 O.2    78  GLY78      -0.2717
     57  N          0.3050   26.6750   10.2160 N.am   79  TYR79      -0.1976
     58  CA        -0.4770   26.2060   11.3610 C.3    79  TYR79       0.1639
     59  C         -1.9700   26.4670   11.1570 C.2    79  TYR79       0.2290
     60  O         -2.8190   25.7140   11.6610 O.2    79  TYR79      -0.2864
     61  CB         0.0210   26.8620   12.6530 C.3    79  TYR79       0.0560
     62  CG         1.3960   26.3820   13.0400 C.ar   79  TYR79      -0.0198
     63  CD1        2.5370   27.1090   12.7130 C.ar   79  TYR79      -0.0009
     64  CD2        1.5590   25.1480   13.6700 C.ar   79  TYR79      -0.0009
     65  CE1        3.8100   26.6190   13.0020 C.ar   79  TYR79       0.0417
     66  CE2        2.8230   24.6460   13.9610 C.ar   79  TYR79       0.0417
     67  CZ         3.9440   25.3850   13.6280 C.ar   79  TYR79       0.1957
     68  OH         5.1970   24.8940   13.9310 O.3    79  TYR79      -0.2866
     69  N         -3.3950   26.3970    8.1680 N.3    81  LYS81      -0.1231
     70  CA        -3.7910   25.4150    7.1670 C.3    81  LYS81       0.1693
     71  C         -3.9970   24.0470    7.8280 C.2    81  LYS81       0.2591
     72  O         -4.9330   23.3200    7.4840 O.2    81  LYS81      -0.2718
     73  CB        -2.7360   25.3300    6.0610 C.3    81  LYS81       0.0285
     74  CG        -2.6340   26.6280    5.2290 C.3    81  LYS81       0.0035
     75  CD        -1.8590   26.4520    3.9480 C.3    81  LYS81       0.0206
     76  CE        -1.8490   27.7630    3.1610 C.3    81  LYS81       0.1093
     77  NZ        -1.3920   27.6010    1.7630 N.3    81  LYS81      -0.1314
     78  N         -3.1200   23.6970    8.7660 N.am   82  ILE82      -0.1980
     79  CA        -3.2580   22.4140    9.4660 C.3    82  ILE82       0.1595
     80  C         -4.5880   22.4070   10.2120 C.2    82  ILE82       0.2287
     81  O         -5.3520   21.4450   10.1260 O.2    82  ILE82      -0.2864
     82  CB        -2.1130   22.1870   10.4760 C.3    82  ILE82       0.0276
     83  CG1       -0.8040   21.9430    9.7130 C.3    82  ILE82       0.0022
     84  CG2       -2.4560   21.0180   11.4070 C.3    82  ILE82       0.0022
     85  CD1        0.4120   21.8770   10.6090 C.3    82  ILE82       0.0001
     86  N         -7.4790   21.9300    7.8090 N.3    85  HIS85      -0.1226
     87  CA        -7.5550   20.5590    7.3000 C.3    85  HIS85       0.1752
     88  C         -8.1610   19.6180    8.3470 C.2    85  HIS85       0.2596
     89  O         -9.0330   18.8040    8.0220 O.2    85  HIS85      -0.2718
     90  CB        -6.1750   20.0370    6.8870 C.3    85  HIS85       0.0759
     91  CG        -6.2240   18.7200    6.1740 C.ar   85  HIS85       0.0818
     92  ND1       -5.0980   17.9630    5.9240 N.ar   85  HIS85      -0.2268
     93  CD2       -7.2610   18.0390    5.6270 C.ar   85  HIS85       0.1154
     94  CE1       -5.4370   16.8780    5.2490 C.ar   85  HIS85       0.1986
     95  NE2       -6.7450   16.8980    5.0560 N.ar   85  HIS85      -0.2212
     96  N         -7.7020   19.7180    9.5930 N.am   86  TYR86      -0.1976
     97  CA        -8.2410   18.8650   10.6500 C.3    86  TYR86       0.1639
     98  C         -9.7430   19.0190   10.7860 C.2    86  TYR86       0.2290
     99  O        -10.4670   18.0280   10.9150 O.2    86  TYR86      -0.2864
    100  CB        -7.5950   19.1810   12.0030 C.3    86  TYR86       0.0560
    101  CG        -6.4100   18.3150   12.2980 C.ar   86  TYR86      -0.0198
    102  CD1       -5.2480   18.4060   11.5460 C.ar   86  TYR86      -0.0009
    103  CD2       -6.4570   17.3870   13.3380 C.ar   86  TYR86      -0.0009
    104  CE1       -4.1540   17.5850   11.8250 C.ar   86  TYR86       0.0417
    105  CE2       -5.3780   16.5730   13.6250 C.ar   86  TYR86       0.0417
    106  CZ        -4.2370   16.6710   12.8750 C.ar   86  TYR86       0.1957
    107  OH        -3.1740   15.8570   13.1840 O.3    86  TYR86      -0.2866
    108  N         -0.8290   11.3240   11.5630 N.3   106  GLU106     -0.1231
    109  CA        -0.2020   12.2010   10.5760 C.3   106  GLU106      0.1699
    110  C          0.6840   11.3820    9.6160 C.2   106  GLU106      0.2592
    111  O          1.2020   10.3250    9.9830 O.2   106  GLU106     -0.2718
    112  CB         0.5610   13.3170   11.3150 C.3   106  GLU106      0.0402
    113  CG        -0.4320   14.1880   12.1210 C.3   106  GLU106      0.1161
    114  CD         0.1510   15.4350   12.7560 C.2   106  GLU106      0.3649
    115  OE1        1.3330   15.4230   13.1470 O.co2 106  GLU106     -0.2457
    116  OE2       -0.5950   16.4350   12.8960 O.co2 106  GLU106     -0.2457
    117  N          0.8410   11.8720    8.3850 N.am  107  ASP107     -0.1960
    118  CA         1.6060   11.1820    7.3470 C.3   107  ASP107      0.1840
    119  C          3.0670   10.8650    7.6380 C.2   107  ASP107      0.2622
    120  O          3.6900   10.1050    6.8890 O.2   107  ASP107     -0.2715
    121  CB         1.5330   11.9750    6.0420 C.3   107  ASP107      0.1450
    122  CG         2.2800   13.2970    6.1300 C.2   107  ASP107      0.3671
    123  OD1        2.0890   14.0140    7.1180 O.co2 107  ASP107     -0.2456
    124  OD2        3.0520   13.6150    5.2010 O.co2 107  ASP107     -0.2456
    125  N          3.6240   11.4360    8.7030 N.am  108  ASP108     -0.1971
    126  CA         5.0190   11.1640    9.0340 C.3   108  ASP108      0.1709
    127  C          5.1770   10.3200   10.2840 C.2   108  ASP108      0.2293
    128  O          6.2000   10.3880   10.9810 O.2   108  ASP108     -0.2864
    129  CB         5.8290   12.4660    9.1680 C.3   108  ASP108      0.1436
    130  CG         5.2880   13.3960   10.2280 C.2   108  ASP108      0.3671
    131  OD1        4.2830   13.0580   10.8990 O.co2 108  ASP108     -0.2456
    132  OD2        5.8900   14.4850   10.3940 O.co2 108  ASP108     -0.2456
    133  N         -0.2300   12.7150   18.2270 N.3   164  LEU164     -0.1245
    134  CA         0.6620   11.7760   17.5460 C.3   164  LEU164      0.1561
    135  C          0.1960   10.3250   17.5640 C.2   164  LEU164      0.2260
    136  O          0.8630    9.4500   18.1110 O.2   164  LEU164     -0.2867
    137  CB         2.0710   11.8950   18.1410 C.3   164  LEU164      0.0270
    138  CG         2.6520   13.3100   17.9580 C.3   164  LEU164      0.0019
    139  CD1        3.9500   13.4460   18.7190 C.3   164  LEU164      0.0001
    140  CD2        2.8570   13.5810   16.4730 C.3   164  LEU164      0.0001
    141  N         -2.9300   26.2820   15.7020 N.3   184  PHE184     -0.1227
    142  CA        -2.3340   25.6040   16.8620 C.3   184  PHE184      0.1736
    143  C         -3.3750   24.7750   17.6120 C.2   184  PHE184      0.2595
    144  O         -3.5380   24.8980   18.8320 O.2   184  PHE184     -0.2718
    145  CB        -1.6990   26.6370   17.7990 C.3   184  PHE184      0.0547
    146  CG        -0.8250   27.6310   17.0840 C.ar  184  PHE184     -0.0202
    147  CD1       -1.2970   28.9070   16.7850 C.ar  184  PHE184     -0.0042
    148  CD2        0.4420   27.2670   16.6400 C.ar  184  PHE184     -0.0042
    149  CE1       -0.5190   29.7990   16.0470 C.ar  184  PHE184     -0.0003
    150  CE2        1.2220   28.1510   15.9040 C.ar  184  PHE184     -0.0003
    151  CZ         0.7370   29.4200   15.6080 C.ar  184  PHE184     -0.0000
    152  N         -4.0430   23.8950   16.8720 N.am  185  TRP185     -0.1962
    153  CA        -5.1130   23.0950   17.4310 C.3   185  TRP185      0.1771
    154  C         -4.7080   22.2040   18.6020 C.2   185  TRP185      0.2619
    155  O         -5.4860   22.0290   19.5330 O.2   185  TRP185     -0.2715
    156  CB        -5.7670   22.2550   16.3210 C.3   185  TRP185      0.0590
    157  CG        -4.9170   21.1300   15.8540 C.ar  185  TRP185      0.0006
    158  CD1       -4.0140   21.1430   14.8370 C.ar  185  TRP185      0.0946
    159  CD2       -4.8220   19.8410   16.4670 C.ar  185  TRP185      0.0152
    160  NE1       -3.3490   19.9320   14.7810 N.ar  185  TRP185     -0.2442
    161  CE2       -3.8280   19.1200   15.7740 C.ar  185  TRP185      0.0810
    162  CE3       -5.4800   19.2300   17.5430 C.ar  185  TRP185      0.0012
    163  CZ2       -3.4730   17.8100   16.1210 C.ar  185  TRP185      0.0191
    164  CZ3       -5.1250   17.9210   17.8900 C.ar  185  TRP185      0.0001
    165  CH2       -4.1300   17.2320   17.1760 C.ar  185  TRP185      0.0015
    166  N         -3.4960   21.6620   18.5760 N.am  186  ASP186     -0.1971
    167  CA        -3.0720   20.7780   19.6590 C.3   186  ASP186      0.1709
    168  C         -2.8300   21.5140   20.9710 C.2   186  ASP186      0.2293
    169  O         -3.2030   21.0280   22.0380 O.2   186  ASP186     -0.2864
    170  CB        -1.8500   19.9340   19.2290 C.3   186  ASP186      0.1436
    171  CG        -0.6930   20.7630   18.6930 C.2   186  ASP186      0.3671
    172  OD1       -0.9130   21.8930   18.2130 O.co2 186  ASP186     -0.2456
    173  OD2        0.4500   20.2580   18.7300 O.co2 186  ASP186     -0.2456
    174  N          9.2770   12.5450   10.1830 N.3   212  GLY212     -0.1225
    175  CA         9.1550   13.7940    9.4450 C.3   212  GLY212      0.1811
    176  C         10.0230   14.9560    9.9060 C.2   212  GLY212      0.2280
    177  O          9.5260   15.9220   10.5120 O.2   212  GLY212     -0.2866
    178  N          9.0550   19.5800    7.8680 N.3   215  GLY215     -0.1210
    179  CA         7.6180   19.7150    8.0000 C.3   215  GLY215      0.1956
    180  C          7.1430   21.1470    7.9650 C.2   215  GLY215      0.2612
    181  O          7.7500   21.9940    7.3050 O.2   215  GLY215     -0.2717
    182  N          6.0440   21.4240    8.6550 N.am  216  VAL216     -0.1965
    183  CA         5.5020   22.7790    8.7030 C.3   216  VAL216      0.1727
    184  C          6.3910   23.5920    9.6070 C.2   216  VAL216      0.2616
    185  O          6.7620   24.7290    9.2920 O.2   216  VAL216     -0.2715
    186  CB         4.0700   22.8140    9.2840 C.3   216  VAL216      0.0290
    187  CG1        3.6930   24.2500    9.6850 C.3   216  VAL216      0.0023
    188  CG2        3.0910   22.2980    8.2560 C.3   216  VAL216      0.0023
    189  N          6.7200   22.9860   10.7410 N.am  217  SER217     -0.1950
    190  CA         7.5590   23.6150   11.7410 C.3   217  SER217      0.1924
    191  C          9.0270   23.4590   11.4000 C.2   217  SER217      0.2314
    192  O          9.4130   22.5640   10.6350 O.2   217  SER217     -0.2863
    193  CB         7.3190   22.9720   13.1070 C.3   217  SER217      0.2116
    194  OG         7.8660   21.6630   13.1380 O.3   217  SER217     -0.2180
    195  N         11.6070   14.8520   19.5320 N.3   226  LEU226     -0.1245
    196  CA        10.7380   13.9120   18.8400 C.3   226  LEU226      0.1561
    197  C         11.3850   12.7280   18.1590 C.2   226  LEU226      0.2260
    198  O         10.9190   11.5980   18.3130 O.2   226  LEU226     -0.2867
    199  CB         9.8750   14.6460   17.8220 C.3   226  LEU226      0.0270
    200  CG         8.9710   15.7340   18.4080 C.3   226  LEU226      0.0019
    201  CD1        8.2210   16.4070   17.2620 C.3   226  LEU226      0.0001
    202  CD2        8.0120   15.1640   19.4020 C.3   226  LEU226      0.0001
@<TRIPOS>BOND
     1    50    49    2
     2    49    48    1
     3    48    51    1
     4    48    47    1
     5    23    22    2
     6    24    21    1
     7    24    25    1
     8    17    16    2
     9    42    41    2
    10    51    52    1
    11    21    22    1
    12    21    20    1
    13    22    28   am
    14    47    41   am
    15    41    40    1
    16    30    31    2
    17    30    29    1
    18    26    25   ar
    19    16    20   am
    20    16    15    1
    21    25    27   ar
    22    28    29    1
    23    29    32    1
    24    77    76    1
    25    40    39    1
    26    40    43    1
    27    52    19    1
    28    15    14    1
    29    15    18    1
    30    45    44   ar
    31    19    18    1
    32    32    33    1
    33    14    11   am
    34    43    44    1
    35    76    75    1
    36    44    46   ar
    37    13    10    1
    38    33    34    1
    39    11    12    2
    40    11    10    1
    41    75    74    1
    42    10     9    1
    43    34    35    1
    44    95    94   ar
    45    95    93   ar
    46   124   122   ar
    47    74    73    1
    48    94    92   ar
    49     9     3   am
    50    93    91   ar
    51    35    36    2
    52    92    91   ar
    53   121   122    1
    54   121   118    1
    55    73    70    1
    56   122   123   ar
    57    91    90    1
    58     3     4    2
    59     3     2    1
    60    90    87    1
    61   120   119    2
    62    36    37    1
    63    36    38    1
    64    70    71    1
    65    70    69    1
    66    87    86    1
    67    87    88    1
    68   181   180    2
    69   118   119    1
    70   118   117    1
    71     2     1    1
    72     2     5    1
    73    72    71    2
    74   119   125   am
    75    71    78   am
    76   178   179    1
    77    54    53    1
    78    54    55    1
    79   180   179    1
    80   180   182   am
    81    89    88    2
    82     7     5    1
    83   188   186    1
    84    88    96   am
    85   117   110   am
    86     5     6    1
    87   182   183    1
    88   125   126    1
    89   183   186    1
    90   183   184    1
    91    78    79    1
    92     8     6    1
    93    56    55    2
    94    55    57   am
    95   126   129    1
    96   126   127    1
    97   129   130    1
    98   186   187    1
    99   185   184    2
   100   175   176    1
   101   175   174    1
   102    79    80    1
   103    79    82    1
   104    96    97    1
   105   184   189   am
   106   110   111    2
   107   110   109    1
   108    83    82    1
   109    83    85    1
   110   176   177    2
   111    81    80    2
   112    57    58    1
   113   130   132   ar
   114   130   131   ar
   115   127   128    2
   116    82    84    1
   117   109   112    1
   118   109   108    1
   119   192   191    2
   120    97    98    1
   121    97   100    1
   122   189   190    1
   123    98    99    2
   124    59    58    1
   125    59    60    2
   126   112   113    1
   127    58    61    1
   128   191   190    1
   129   102   104   ar
   130   102   101   ar
   131   190   193    1
   132   104   106   ar
   133   100   101    1
   134   113   114    1
   135   101   103   ar
   136    61    62    1
   137    63    65   ar
   138    63    62   ar
   139   114   116   ar
   140   114   115   ar
   141   106   107    1
   142   106   105   ar
   143    65    67   ar
   144    62    64   ar
   145   193   194    1
   146   103   105   ar
   147    67    68    1
   148    67    66   ar
   149    64    66   ar
   150   160   158   ar
   151   160   161   ar
   152   158   157   ar
   153   151   150   ar
   154   151   149   ar
   155   141   142    1
   156   161   163   ar
   157   161   159   ar
   158   157   156    1
   159   157   159   ar
   160   150   148   ar
   161   149   147   ar
   162   163   165   ar
   163   156   153    1
   164   159   162   ar
   165   140   138    1
   166   148   146   ar
   167   147   146   ar
   168   142   143    1
   169   142   145    1
   170   152   153    1
   171   152   143   am
   172   146   145    1
   173   165   164   ar
   174   201   200    1
   175   153   154    1
   176   162   164   ar
   177   134   135    1
   178   134   137    1
   179   134   133    1
   180   135   136    2
   181   143   144    2
   182   199   200    1
   183   199   196    1
   184   138   137    1
   185   138   139    1
   186   197   198    2
   187   197   196    1
   188   172   171   ar
   189   200   202    1
   190   166   154   am
   191   166   167    1
   192   154   155    2
   193   171   173   ar
   194   171   170    1
   195   196   195    1
   196   170   167    1
   197   167   168    1
   198   168   169    2
