@<TRIPOS>MOLECULE
tmp/2am5A00.pdb
 149 143 0 0 0
SMALL
GASTEIGER

@<TRIPOS>ATOM
      1  N         -3.8190   11.9230    7.8380 N.3     8  ILE8       -0.1231
      2  CA        -3.8030   13.3160    7.3620 C.3     8  ILE8        0.1692
      3  C         -2.5580   13.5110    6.5100 C.2     8  ILE8        0.2592
      4  O         -1.4420   13.3170    6.9850 O.2     8  ILE8       -0.2718
      5  CB        -3.7780   14.2850    8.5600 C.3     8  ILE8        0.0266
      6  CG1       -4.9450   13.9810    9.5060 C.3     8  ILE8        0.0019
      7  CG2       -3.8650   15.7450    8.0670 C.3     8  ILE8        0.0020
      8  CD1       -6.3030   14.2130    8.9070 C.3     8  ILE8        0.0001
      9  N         -2.7570   13.8800    5.2470 N.am    9  ALA9       -0.1966
     10  CA        -1.6410   14.0600    4.3160 C.3     9  ALA9        0.1728
     11  C         -1.7160   15.3940    3.6040 C.2     9  ALA9        0.2616
     12  O         -2.7500   16.0690    3.6340 O.2     9  ALA9       -0.2715
     13  CB        -1.6340   12.9060    3.2770 C.3     9  ALA9        0.0334
     14  N         -0.6040   15.7700    2.9710 N.am   10  CYS10      -0.1954
     15  CA        -0.5280   17.0190    2.2310 C.3    10  CYS10       0.1843
     16  C          0.4230   16.9610    1.0340 C.2    10  CYS10       0.2625
     17  O         -0.0180   16.7200   -0.0900 O.2    10  CYS10      -0.2714
     18  CB        -0.1490   18.1450    3.2010 C.3    10  CYS10       0.0997
     19  SG         0.3680   19.7710    2.5120 S.3    10  CYS10      -0.0797
     20  N          1.7180   17.1540    1.2700 N.am   11  ASP11      -0.1957
     21  CA         2.6580   17.1960    0.1650 C.3    11  ASP11       0.1840
     22  C          3.9470   16.4160    0.3510 C.2    11  ASP11       0.2621
     23  O          4.9630   16.7290   -0.2660 O.2    11  ASP11      -0.2715
     24  CB         2.9620   18.6680   -0.1970 C.3    11  ASP11       0.1450
     25  CG         3.4720   19.4860    0.9810 C.2    11  ASP11       0.3671
     26  OD1        3.6470   20.7250    0.8140 O.co2  11  ASP11      -0.2456
     27  OD2        3.7110   18.9320    2.0760 O.co2  11  ASP11      -0.2456
     28  N          3.9120   15.4140    1.2260 N.am   12  ARG12      -0.1977
     29  CA         5.0880   14.5690    1.4250 C.3    12  ARG12       0.1597
     30  C          4.7820   13.1760    0.8620 C.2    12  ARG12       0.2287
     31  O          3.8420   12.5010    1.2950 O.2    12  ARG12      -0.2864
     32  CB         5.4410   14.4830    2.9140 C.3    12  ARG12       0.0334
     33  CG         5.9330   15.8090    3.4810 C.3    12  ARG12       0.0492
     34  CD         6.3460   15.7180    4.9460 C.3    12  ARG12       0.2205
     35  NE         5.2020   15.4660    5.8210 N.pl3  12  ARG12      -0.0865
     36  CZ         5.1750   15.7520    7.1190 C.cat  12  ARG12       0.5346
     37  NH1        6.2320   16.3040    7.7150 N.pl3  12  ARG12       0.1354
     38  NH2        4.0820   15.4980    7.8300 N.pl3  12  ARG12       0.1354
     39  N         -4.6980   17.2670    1.9080 N.3    39  ASP39      -0.1225
     40  CA        -4.8530   18.7050    1.7270 C.3    39  ASP39       0.1805
     41  C         -3.7970   19.0770    0.6710 C.2    39  ASP39       0.2598
     42  O         -3.0980   18.2050    0.1270 O.2    39  ASP39      -0.2718
     43  CB        -4.5470   19.3890    3.0710 C.3    39  ASP39       0.1424
     44  CG        -4.8310   20.8800    3.0690 C.2    39  ASP39       0.3668
     45  OD1       -5.5460   21.3600    2.1660 O.co2  39  ASP39      -0.2456
     46  OD2       -4.3450   21.5590    4.0000 O.co2  39  ASP39      -0.2456
     47  N         -3.7310   20.3580    0.3320 N.am   40  CYS40      -0.1970
     48  CA        -2.6800   20.8550   -0.5540 C.3    40  CYS40       0.1712
     49  C         -2.7380   20.5920   -2.0540 C.2    40  CYS40       0.2296
     50  O         -2.3950   21.4690   -2.8350 O.2    40  CYS40      -0.2864
     51  CB        -1.3300   20.3890    0.0290 C.3    40  CYS40       0.0983
     52  SG        -1.2800   20.7320    1.8340 S.3    40  CYS40      -0.0798
     53  N          1.0050   27.9540    7.6670 N.3    78  GLY78      -0.1210
     54  CA         0.9220   26.4990    7.6430 C.3    78  GLY78       0.1956
     55  C          0.0780   25.9350    8.7810 C.2    78  GLY78       0.2611
     56  O         -0.6600   24.9540    8.6010 O.2    78  GLY78      -0.2717
     57  N          0.1820   26.5430    9.9610 N.am   79  TYR79      -0.1976
     58  CA        -0.5910   26.0620   11.1080 C.3    79  TYR79       0.1639
     59  C         -2.0810   26.3510   10.9420 C.2    79  TYR79       0.2290
     60  O         -2.9240   25.6110   11.4630 O.2    79  TYR79      -0.2864
     61  CB        -0.0510   26.6600   12.4080 C.3    79  TYR79       0.0560
     62  CG         1.3630   26.2120   12.6980 C.ar   79  TYR79      -0.0198
     63  CD1        2.4490   27.0350   12.4040 C.ar   79  TYR79      -0.0009
     64  CD2        1.6150   24.9520   13.2400 C.ar   79  TYR79      -0.0009
     65  CE1        3.7570   26.6140   12.6490 C.ar   79  TYR79       0.0417
     66  CE2        2.9140   24.5260   13.4870 C.ar   79  TYR79       0.0417
     67  CZ         3.9730   25.3590   13.1940 C.ar   79  TYR79       0.1957
     68  OH         5.2580   24.9540   13.4620 O.3    79  TYR79      -0.2866
     69  N         -3.5230   26.2660    7.9990 N.3    81  LYS81      -0.1231
     70  CA        -3.9340   25.2660    7.0320 C.3    81  LYS81       0.1693
     71  C         -4.1230   23.9160    7.7270 C.2    81  LYS81       0.2591
     72  O         -5.0840   23.2030    7.4390 O.2    81  LYS81      -0.2718
     73  CB        -2.9090   25.1800    5.8980 C.3    81  LYS81       0.0285
     74  CG        -2.9720   26.4320    4.9840 C.3    81  LYS81       0.0035
     75  CD        -2.0680   26.3470    3.7710 C.3    81  LYS81       0.0206
     76  CE        -2.4220   27.4720    2.7930 C.3    81  LYS81       0.1093
     77  NZ        -1.5620   27.4910    1.5800 N.3    81  LYS81      -0.1314
     78  N         -3.2270   23.5810    8.6520 N.am   82  ILE82      -0.1980
     79  CA        -3.3740   22.3150    9.3680 C.3    82  ILE82       0.1595
     80  C         -4.7150   22.2990   10.1140 C.2    82  ILE82       0.2287
     81  O         -5.4770   21.3310   10.0490 O.2    82  ILE82      -0.2864
     82  CB        -2.2420   22.1080   10.3940 C.3    82  ILE82       0.0276
     83  CG1       -0.9170   21.8660    9.6700 C.3    82  ILE82       0.0022
     84  CG2       -2.5740   20.9380   11.3050 C.3    82  ILE82       0.0022
     85  CD1        0.2550   21.8790   10.6200 C.3    82  ILE82       0.0001
     86  N         -7.6570   21.8250    7.7840 N.3    85  HIS85      -0.1241
     87  CA        -7.7510   20.4650    7.2810 C.3    85  HIS85       0.1621
     88  C         -8.3060   19.5290    8.3480 C.2    85  HIS85       0.2264
     89  O         -9.1840   18.7140    8.0700 O.2    85  HIS85      -0.2867
     90  CB        -6.3890   19.9610    6.8110 C.3    85  HIS85       0.0745
     91  CG        -6.4680   18.6480    6.0980 C.ar   85  HIS85       0.0817
     92  ND1       -5.3590   17.8760    5.8390 N.ar   85  HIS85      -0.2268
     93  CD2       -7.5250   17.9830    5.5680 C.ar   85  HIS85       0.1154
     94  CE1       -5.7270   16.7930    5.1750 C.ar   85  HIS85       0.1986
     95  NE2       -7.0350   16.8330    4.9960 N.ar   85  HIS85      -0.2212
     96  N         -0.9670   11.3870   11.6050 N.3   106  GLU106     -0.1231
     97  CA        -0.3420   12.2800   10.6290 C.3   106  GLU106      0.1699
     98  C          0.5470   11.4400    9.6940 C.2   106  GLU106      0.2592
     99  O          1.0460   10.3720   10.0700 O.2   106  GLU106     -0.2718
    100  CB         0.4210   13.4080   11.3530 C.3   106  GLU106      0.0402
    101  CG        -0.5970   14.3280   12.0710 C.3   106  GLU106      0.1161
    102  CD        -0.0220   15.5950   12.6830 C.2   106  GLU106      0.3649
    103  OE1        1.1860   15.6420   12.9910 O.co2 106  GLU106     -0.2457
    104  OE2       -0.7960   16.5630   12.8870 O.co2 106  GLU106     -0.2457
    105  N          0.7460   11.9350    8.4760 N.am  107  ASP107     -0.1960
    106  CA         1.4660   11.2040    7.4340 C.3   107  ASP107      0.1840
    107  C          2.9200   10.8900    7.6700 C.2   107  ASP107      0.2622
    108  O          3.5000   10.1070    6.9110 O.2   107  ASP107     -0.2715
    109  CB         1.3390   11.9410    6.0880 C.3   107  ASP107      0.1450
    110  CG         2.0580   13.2830    6.0840 C.2   107  ASP107      0.3671
    111  OD1        1.7630   14.1010    6.9710 O.co2 107  ASP107     -0.2456
    112  OD2        2.9130   13.5160    5.1990 O.co2 107  ASP107     -0.2456
    113  N          3.5250   11.5140    8.6800 N.am  108  ASP108     -0.1971
    114  CA         4.9230   11.2660    8.9850 C.3   108  ASP108      0.1709
    115  C          5.1000   10.3910   10.2170 C.2   108  ASP108      0.2293
    116  O          6.1340   10.4310   10.8850 O.2   108  ASP108     -0.2864
    117  CB         5.6920   12.5900    9.1430 C.3   108  ASP108      0.1436
    118  CG         5.1460   13.4670   10.2500 C.2   108  ASP108      0.3671
    119  OD1        4.1330   13.1110   10.9070 O.co2 108  ASP108     -0.2456
    120  OD2        5.7510   14.5370   10.4670 O.co2 108  ASP108     -0.2456
    121  N          9.1000   12.8040   10.3450 N.3   212  GLY212     -0.1225
    122  CA         8.9180   14.0790    9.6580 C.3   212  GLY212      0.1811
    123  C          9.8630   15.2000   10.0600 C.2   212  GLY212      0.2280
    124  O          9.4390   16.2170   10.6090 O.2   212  GLY212     -0.2866
    125  N          8.8540   19.5170    7.7170 N.3   215  GLY215     -0.1210
    126  CA         7.4100   19.6360    7.7260 C.3   215  GLY215      0.1956
    127  C          7.0340   21.0880    7.9140 C.2   215  GLY215      0.2612
    128  O          7.7990   21.9810    7.5640 O.2   215  GLY215     -0.2717
    129  N          5.8580   21.3350    8.4710 N.am  216  VAL216     -0.1965
    130  CA         5.4200   22.7040    8.7080 C.3   216  VAL216      0.1727
    131  C          6.3080   23.3870    9.7460 C.2   216  VAL216      0.2616
    132  O          6.7120   24.5420    9.5650 O.2   216  VAL216     -0.2715
    133  CB         3.9570   22.7310    9.1820 C.3   216  VAL216      0.0290
    134  CG1        3.5880   24.1330    9.6950 C.3   216  VAL216      0.0023
    135  CG2        3.0500   22.3330    8.0190 C.3   216  VAL216      0.0023
    136  N          6.6370   22.6550   10.8070 N.am  217  SER217     -0.1950
    137  CA         7.4600   23.1800   11.8940 C.3   217  SER217      0.1924
    138  C          8.9370   23.0690   11.5780 C.2   217  SER217      0.2314
    139  O          9.3760   22.1080   10.9420 O.2   217  SER217     -0.2863
    140  CB         7.2060   22.4080   13.2010 C.3   217  SER217      0.2116
    141  OG         5.8970   22.5920   13.7300 O.3   217  SER217     -0.2180
    142  N         11.7860   14.7560   19.4320 N.3   226  LEU226     -0.1245
    143  CA        10.9260   13.7810   18.7590 C.3   226  LEU226      0.1561
    144  C         11.6260   12.5910   18.1220 C.2   226  LEU226      0.2260
    145  O         11.1340   11.4670   18.2360 O.2   226  LEU226     -0.2867
    146  CB        10.0540   14.4680   17.7090 C.3   226  LEU226      0.0270
    147  CG         9.1750   15.6280   18.1910 C.3   226  LEU226      0.0019
    148  CD1        8.4480   16.1890   16.9870 C.3   226  LEU226      0.0001
    149  CD2        8.1850   15.1700   19.2480 C.3   226  LEU226      0.0001
@<TRIPOS>BOND
     1    50    49    2
     2    49    48    1
     3    48    51    1
     4    48    47    1
     5    23    22    2
     6    24    21    1
     7    24    25    1
     8    17    16    2
     9    51    52    1
    10    42    41    2
    11    21    22    1
    12    21    20    1
    13    47    41   am
    14    22    28   am
    15    41    40    1
    16    26    25   ar
    17    30    31    2
    18    30    29    1
    19    25    27   ar
    20    16    20   am
    21    16    15    1
    22    28    29    1
    23    29    32    1
    24    77    76    1
    25    40    39    1
    26    40    43    1
    27    52    19    1
    28    45    44   ar
    29    15    14    1
    30    15    18    1
    31    19    18    1
    32    76    75    1
    33    32    33    1
    34    14    11   am
    35    44    43    1
    36    44    46   ar
    37    13    10    1
    38    33    34    1
    39    11    12    2
    40    11    10    1
    41    75    74    1
    42    10     9    1
    43    34    35    1
    44    74    73    1
    45    95    94   ar
    46    95    93   ar
    47    94    92   ar
    48   112   110   ar
    49     9     3   am
    50    93    91   ar
    51    35    36    2
    52    92    91   ar
    53    73    70    1
    54   110   109    1
    55   110   111   ar
    56   109   106    1
    57    91    90    1
    58     3     4    2
    59     3     2    1
    60    90    87    1
    61   108   107    2
    62    70    71    1
    63    70    69    1
    64    36    37    1
    65    36    38    1
    66    87    86    1
    67    87    88    1
    68     2     1    1
    69     2     5    1
    70   106   107    1
    71   106   105    1
    72    72    71    2
    73   128   127    2
    74    54    53    1
    75    54    55    1
    76   107   113   am
    77   125   126    1
    78   126   127    1
    79    71    78   am
    80   127   129   am
    81   135   133    1
    82     7     5    1
    83    89    88    2
    84   129   130    1
    85   105    98   am
    86     5     6    1
    87    56    55    2
    88    78    79    1
    89   113   114    1
    90   130   133    1
    91   130   131    1
    92    55    57   am
    93     8     6    1
    94   114   117    1
    95   114   115    1
    96   117   118    1
    97   133   134    1
    98    79    80    1
    99    79    82    1
   100   132   131    2
   101   122   123    1
   102   122   121    1
   103    83    82    1
   104    83    85    1
   105    98    99    2
   106    98    97    1
   107   131   136   am
   108    57    58    1
   109    81    80    2
   110   123   124    2
   111   115   116    2
   112   118   120   ar
   113   118   119   ar
   114    82    84    1
   115    97   100    1
   116    97    96    1
   117   136   137    1
   118   139   138    2
   119    59    58    1
   120    59    60    2
   121    58    61    1
   122   100   101    1
   123   138   137    1
   124   137   140    1
   125   101   102    1
   126    63    65   ar
   127    63    62   ar
   128    61    62    1
   129    65    67   ar
   130   102   104   ar
   131   102   103   ar
   132    62    64   ar
   133    67    68    1
   134    67    66   ar
   135   140   141    1
   136    64    66   ar
   137   148   147    1
   138   146   147    1
   139   146   143    1
   140   144   145    2
   141   144   143    1
   142   147   149    1
   143   143   142    1
