@<TRIPOS>MOLECULE
tmp/2ambA00.pdb
 189 177 0 0 0
SMALL
GASTEIGER

@<TRIPOS>ATOM
      1  N         31.7650   -0.0360   -3.4620 N.3    31  LEU31      -0.1245
      2  CA        31.8570   -0.3590   -2.0510 C.3    31  LEU31       0.1561
      3  C         32.9570    0.4530   -1.3660 C.2    31  LEU31       0.2260
      4  O         32.8090    0.8390   -0.2100 O.2    31  LEU31      -0.2867
      5  CB        31.9530   -1.8790   -1.8460 C.3    31  LEU31       0.0270
      6  CG        30.6920   -2.6670   -2.3100 C.3    31  LEU31       0.0019
      7  CD1       30.7380   -4.0530   -1.6970 C.3    31  LEU31       0.0001
      8  CD2       29.3590   -2.0120   -1.8710 C.3    31  LEU31       0.0001
      9  N         31.3560    3.8360   -0.7820 N.3    34  LEU34      -0.1231
     10  CA        30.3970    3.8110    0.3610 C.3    34  LEU34       0.1693
     11  C         31.1320    3.8370    1.6960 C.2    34  LEU34       0.2592
     12  O         30.7230    4.5570    2.6210 O.2    34  LEU34      -0.2718
     13  CB        29.4920    2.5760    0.3470 C.3    34  LEU34       0.0284
     14  CG        28.2570    2.6480   -0.5910 C.3    34  LEU34       0.0019
     15  CD1       27.6080    1.2890   -0.6590 C.3    34  LEU34       0.0001
     16  CD2       27.2240    3.6940   -0.0610 C.3    34  LEU34       0.0001
     17  N         32.1860    3.0230    1.8120 N.am   35  ASN35      -0.1974
     18  CA        32.9720    2.9620    3.0580 C.3    35  ASN35       0.1688
     19  C         33.5810    4.3130    3.3880 C.2    35  ASN35       0.2292
     20  O         33.5900    4.7390    4.5580 O.2    35  ASN35      -0.2864
     21  CB        34.0630    1.8720    2.9760 C.3    35  ASN35       0.1181
     22  CG        33.5080    0.4820    3.2850 C.2    35  ASN35       0.2629
     23  OD1       32.4110    0.3740    3.8610 O.2    35  ASN35      -0.2716
     24  ND2       34.2640   -0.5920    2.9410 N.am   35  ASN35      -0.0877
     25  N         32.3940    7.2500    2.4690 N.3    37  LEU37      -0.1231
     26  CA        31.2660    8.0720    2.8890 C.3    37  LEU37       0.1693
     27  C         30.8710    7.7120    4.3380 C.2    37  LEU37       0.2592
     28  O         30.5440    8.6000    5.1300 O.2    37  LEU37      -0.2718
     29  CB        30.0790    7.8490    1.9070 C.3    37  LEU37       0.0284
     30  CG        28.8020    8.6000    2.3030 C.3    37  LEU37       0.0019
     31  CD1       29.1230   10.1370    2.2700 C.3    37  LEU37       0.0001
     32  CD2       27.6700    8.2560    1.3280 C.3    37  LEU37       0.0001
     33  N         30.8860    6.4150    4.6680 N.am   38  GLY38      -0.1957
     34  CA        30.5560    5.9670    6.0130 C.3    38  GLY38       0.1869
     35  C         31.4990    6.6080    7.0240 C.2    38  GLY38       0.2309
     36  O         31.0690    7.0400    8.0510 O.2    38  GLY38      -0.2863
     37  N         30.5420   10.3200    7.3190 N.3    41  GLN41      -0.1245
     38  CA        29.2730   10.4730    8.0450 C.3    41  GLN41       0.1566
     39  C         29.4110   10.2890    9.5530 C.2    41  GLN41       0.2260
     40  O         28.8400   10.9820   10.3770 O.2    41  GLN41      -0.2867
     41  CB        28.2780    9.4450    7.4950 C.3    41  GLN41       0.0367
     42  CG        27.6220    9.9540    6.2610 C.3    41  GLN41       0.0905
     43  CD        26.8760   11.2130    6.5530 C.2    41  GLN41       0.2608
     44  OE1       26.6330   12.0260    5.6810 O.2    41  GLN41      -0.2717
     45  NE2       26.4960   11.3810    7.7980 N.am   41  GLN41      -0.0878
     46  N         25.2290    4.1210   15.0330 N.3    71  TRP71      -0.1227
     47  CA        25.7340    4.6960   13.7770 C.3    71  TRP71       0.1737
     48  C         25.0810    4.1480   12.5160 C.2    71  TRP71       0.2595
     49  O         24.5820    4.8940   11.6640 O.2    71  TRP71      -0.2718
     50  CB        27.2560    4.5160   13.7000 C.3    71  TRP71       0.0564
     51  CG        27.9670    4.7290   12.3570 C.ar   71  TRP71       0.0003
     52  CD1       28.0700    5.8830   11.5550 C.ar   71  TRP71       0.0946
     53  CD2       28.8030    3.7660   11.7780 C.ar   71  TRP71       0.0152
     54  NE1       28.9500    5.6430   10.5200 N.ar   71  TRP71      -0.2442
     55  CE2       29.4180    4.3520   10.6270 C.ar   71  TRP71       0.0810
     56  CE3       29.1070    2.4360   12.1260 C.ar   71  TRP71       0.0012
     57  CZ2       30.3140    3.6220    9.8420 C.ar   71  TRP71       0.0191
     58  CZ3       29.9840    1.7270   11.3510 C.ar   71  TRP71       0.0001
     59  CH2       30.5810    2.3110   10.2240 C.ar   71  TRP71       0.0015
     60  N         25.0520    2.8230   12.3990 N.am   72  MET72      -0.1979
     61  CA        24.4750    2.2270   11.2190 C.3    72  MET72       0.1605
     62  C         22.9870    2.6210   11.0080 C.2    72  MET72       0.2287
     63  O         22.5740    3.0550    9.9000 O.2    72  MET72      -0.2864
     64  CB        24.5230    0.6810   11.2760 C.3    72  MET72       0.0413
     65  CG        24.0660    0.0380    9.8940 C.3    72  MET72       0.0598
     66  SD        25.2840    0.2960    8.5430 S.3    72  MET72      -0.1393
     67  CE        26.5830   -0.8630    9.0540 C.3    72  MET72       0.0692
     68  N         22.5400    6.2400   10.0400 N.3    75  MET75      -0.1230
     69  CA        22.9270    6.5210    8.6580 C.3    75  MET75       0.1702
     70  C         21.8260    6.1210    7.7120 C.2    75  MET75       0.2592
     71  O         21.4620    6.8950    6.8240 O.2    75  MET75      -0.2718
     72  CB        24.2320    5.7960    8.2430 C.3    75  MET75       0.0401
     73  CG        25.4970    6.2970    8.9610 C.3    75  MET75       0.0596
     74  SD        26.9790    5.7960    8.0170 S.3    75  MET75      -0.1393
     75  CE        26.9140    4.0160    8.0610 C.3    75  MET75       0.0692
     76  N         21.2660    4.9430    7.9650 N.am   76  VAL76      -0.1980
     77  CA        20.2050    4.3930    7.1300 C.3    76  VAL76       0.1595
     78  C         18.9720    5.2920    7.2020 C.2    76  VAL76       0.2287
     79  O         18.3220    5.5740    6.1400 O.2    76  VAL76      -0.2864
     80  CB        19.7900    2.9950    7.6160 C.3    76  VAL76       0.0276
     81  CG1       18.5320    2.5240    6.8320 C.3    76  VAL76       0.0022
     82  CG2       20.9460    1.9970    7.3680 C.3    76  VAL76       0.0022
     83  N         19.5470    8.5550    5.4380 N.3    79  MET79      -0.1245
     84  CA        19.6890    8.3110    4.0010 C.3    79  MET79       0.1570
     85  C         18.2840    8.0800    3.4230 C.2    79  MET79       0.2261
     86  O         17.9500    8.6140    2.3350 O.2    79  MET79      -0.2867
     87  CB        20.6050    7.1180    3.7260 C.3    79  MET79       0.0387
     88  CG        20.9360    6.9580    2.2080 C.3    79  MET79       0.0595
     89  SD        19.6720    5.9680    1.3360 S.3    79  MET79      -0.1393
     90  CE        19.9810    4.3040    2.0830 C.3    79  MET79       0.0692
     91  N         16.7370   11.5600    3.0480 N.3    82  ARG82      -0.1245
     92  CA        17.3130   12.2770    1.8900 C.3    82  ARG82       0.1563
     93  C         16.7730   11.7540    0.5430 C.2    82  ARG82       0.2260
     94  O         16.5520   12.5330   -0.3880 O.2    82  ARG82      -0.2867
     95  CB        18.8460   12.1230    1.8440 C.3    82  ARG82       0.0307
     96  CG        19.5920   12.8980    2.8820 C.3    82  ARG82       0.0489
     97  CD        21.0540   12.9840    2.3850 C.3    82  ARG82       0.2205
     98  NE        21.7500   11.7130    2.4040 N.pl3  82  ARG82      -0.0865
     99  CZ        22.1590   11.0610    3.4960 C.cat  82  ARG82       0.5346
    100  NH1       21.9300   11.5500    4.7200 N.pl3  82  ARG82       0.1354
    101  NH2       22.8580    9.9390    3.3510 N.pl3  82  ARG82       0.1354
    102  N         22.6050    8.2560   -1.2240 N.3    94  PHE94      -0.1241
    103  CA        23.6350    8.1640   -0.1950 C.3    94  PHE94       0.1605
    104  C         24.3570    9.4900   -0.0690 C.2    94  PHE94       0.2264
    105  O         24.6570    9.9460    1.0640 O.2    94  PHE94      -0.2867
    106  CB        24.6410    7.0740   -0.5840 C.3    94  PHE94       0.0534
    107  CG        24.0860    5.6630   -0.4770 C.ar   94  PHE94      -0.0203
    108  CD1       23.8710    4.8930   -1.6170 C.ar   94  PHE94      -0.0042
    109  CD2       23.8360    5.0990    0.7760 C.ar   94  PHE94      -0.0042
    110  CE1       23.3990    3.5160   -1.5260 C.ar   94  PHE94      -0.0003
    111  CE2       23.3620    3.7320    0.8870 C.ar   94  PHE94      -0.0003
    112  CZ        23.1480    2.9540   -0.2680 C.ar   94  PHE94      -0.0000
    113  N         24.6540   -5.5300   -3.1890 N.3   110  MET110     -0.1245
    114  CA        23.9290   -5.2210   -1.9760 C.3   110  MET110      0.1570
    115  C         22.4710   -5.1060   -2.3580 C.2   110  MET110      0.2261
    116  O         21.7050   -4.4540   -1.6360 O.2   110  MET110     -0.2867
    117  CB        24.3830   -3.8690   -1.4210 C.3   110  MET110      0.0387
    118  CG        25.7810   -3.8470   -0.8510 C.3   110  MET110      0.0595
    119  SD        26.2710   -2.1810   -0.4660 S.3   110  MET110     -0.1393
    120  CE        25.0920   -1.7670    0.8720 C.3   110  MET110      0.0692
    121  N         16.2190   -0.7980    2.2910 N.3   117  MET117     -0.1245
    122  CA        16.4210    0.5890    2.5880 C.3   117  MET117      0.1570
    123  C         15.4890    1.4990    1.7870 C.2   117  MET117      0.2261
    124  O         14.9890    2.4920    2.3240 O.2   117  MET117     -0.2867
    125  CB        17.8870    0.9720    2.3480 C.3   117  MET117      0.0387
    126  CG        18.7940    0.4370    3.4250 C.3   117  MET117      0.0595
    127  SD        20.5550    1.0090    3.2210 S.3   117  MET117     -0.1393
    128  CE        21.1170    0.1180    1.8960 C.3   117  MET117      0.0692
    129  N         22.5710   -4.8910    7.5800 N.3   200  LEU200     -0.1245
    130  CA        23.7270   -4.1380    7.1330 C.3   200  LEU200      0.1561
    131  C         24.9290   -4.4490    8.0170 C.2   200  LEU200      0.2260
    132  O         26.0530   -4.4610    7.5330 O.2   200  LEU200     -0.2867
    133  CB        23.4240   -2.6350    7.1310 C.3   200  LEU200      0.0270
    134  CG        22.4480   -2.2390    5.9980 C.3   200  LEU200      0.0019
    135  CD1       22.0270   -0.7760    6.1630 C.3   200  LEU200      0.0001
    136  CD2       23.1300   -2.4600    4.6040 C.3   200  LEU200      0.0001
    137  N         26.2210   -7.6450    6.7740 N.3   203  PHE203     -0.1227
    138  CA        26.8780   -7.4150    5.4930 C.3   203  PHE203      0.1736
    139  C         28.2310   -6.7090    5.6140 C.2   203  PHE203      0.2596
    140  O         29.2010   -7.1630    4.9900 O.2   203  PHE203     -0.2718
    141  CB        25.9650   -6.6130    4.5370 C.3   203  PHE203      0.0547
    142  CG        26.5220   -6.4740    3.1460 C.ar  203  PHE203     -0.0202
    143  CD1       27.4110   -5.4180    2.8490 C.ar  203  PHE203     -0.0042
    144  CD2       26.1480   -7.3450    2.1220 C.ar  203  PHE203     -0.0042
    145  CE1       27.9060   -5.2520    1.5350 C.ar  203  PHE203     -0.0003
    146  CE2       26.6280   -7.2020    0.8260 C.ar  203  PHE203     -0.0003
    147  CZ        27.5140   -6.1480    0.5280 C.ar  203  PHE203     -0.0000
    148  N         28.3570   -5.6740    6.4230 N.am  204  THR204     -0.1953
    149  CA        29.6310   -4.9690    6.4950 C.3   204  THR204      0.1897
    150  C         30.6350   -5.8240    7.2500 C.2   204  THR204      0.2313
    151  O         31.8450   -5.8210    6.9350 O.2   204  THR204     -0.2863
    152  CB        29.4320   -3.5790    7.1460 C.3   204  THR204      0.1794
    153  OG1       30.6050   -2.7900    6.9580 O.3   204  THR204     -0.2208
    154  CG2       29.1560   -3.7070    8.6340 C.3   204  THR204      0.0378
    155  N         31.9470   -8.4180    4.8820 N.3   207  LEU207     -0.1245
    156  CA        32.8180   -7.7710    3.9000 C.3   207  LEU207      0.1561
    157  C         34.1760   -7.3970    4.4990 C.2   207  LEU207      0.2260
    158  O         35.2280   -7.4990    3.8300 O.2   207  LEU207     -0.2867
    159  CB        32.1100   -6.5260    3.3530 C.3   207  LEU207      0.0270
    160  CG        32.7490   -5.7190    2.2200 C.3   207  LEU207      0.0019
    161  CD1       33.1300   -6.6040    1.0340 C.3   207  LEU207      0.0001
    162  CD2       31.7120   -4.6690    1.7640 C.3   207  LEU207      0.0001
    163  N         38.5760   -0.3240    3.7670 N.3   218  PHE218     -0.1241
    164  CA        37.8650    0.0910    4.9820 C.3   218  PHE218      0.1605
    165  C         38.7300    1.0940    5.7690 C.2   218  PHE218      0.2264
    166  O         39.8030    0.7420    6.2500 O.2   218  PHE218     -0.2867
    167  CB        37.5740   -1.0980    5.9230 C.3   218  PHE218      0.0534
    168  CG        36.3590   -1.9320    5.5280 C.ar  218  PHE218     -0.0203
    169  CD1       36.4320   -2.8580    4.4990 C.ar  218  PHE218     -0.0042
    170  CD2       35.1530   -1.8090    6.2390 C.ar  218  PHE218     -0.0042
    171  CE1       35.3110   -3.6780    4.1610 C.ar  218  PHE218     -0.0003
    172  CE2       34.0090   -2.6370    5.8950 C.ar  218  PHE218     -0.0003
    173  CZ        34.1020   -3.5520    4.8740 C.ar  218  PHE218     -0.0000
    174  N         36.8470    2.3210   11.4220 N.3   222  MET222     -0.1245
    175  CA        35.5060    1.5580   11.1860 C.3   222  MET222      0.1570
    176  C         35.7370    0.1080   10.9070 C.2   222  MET222      0.2261
    177  O         35.0990   -0.8590   11.3110 O.2   222  MET222     -0.2867
    178  CB        34.8990    2.1230    9.9880 C.3   222  MET222      0.0387
    179  CG        35.5870    1.8010    8.6830 C.3   222  MET222      0.0595
    180  SD        34.3800    1.9690    7.4080 S.3   222  MET222     -0.1393
    181  CE        34.1390    3.7670    7.4070 C.3   222  MET222      0.0692
    182  N         33.6030   -1.9250   13.3870 N.3   226  ILE226     -0.1245
    183  CA        33.0360   -3.1180   12.7830 C.3   226  ILE226      0.1561
    184  C         33.6120   -4.4060   13.3970 C.2   226  ILE226      0.2260
    185  O         32.9370   -5.4110   13.5020 O.2   226  ILE226     -0.2867
    186  CB        33.2450   -3.0740   11.2450 C.3   226  ILE226      0.0252
    187  CG1       32.4980   -1.8530   10.6690 C.3   226  ILE226      0.0019
    188  CG2       32.7970   -4.4040   10.5680 C.3   226  ILE226      0.0019
    189  CD1       32.7690   -1.5540    9.2180 C.3   226  ILE226      0.0001
@<TRIPOS>BOND
     1     1     2    1
     2   113   114    1
     3   115   114    1
     4   115   116    2
     5     6     8    1
     6     6     5    1
     7     6     7    1
     8     2     5    1
     9     2     3    1
    10   114   117    1
    11   108   110   ar
    12   108   107   ar
    13   110   112   ar
    14   117   118    1
    15     3     4    2
    16   102   103    1
    17   118   119    1
    18     9    10    1
    19    15    14    1
    20    14    16    1
    21    14    13    1
    22   106   107    1
    23   106   103    1
    24   107   109   ar
    25   119   120    1
    26    94    93    2
    27   112   111   ar
    28   103   104    1
    29   104   105    2
    30    13    10    1
    31    10    11    1
    32   147   146   ar
    33   147   145   ar
    34    93    92    1
    35   109   111   ar
    36   146   144   ar
    37   161   160    1
    38    32    30    1
    39    89    90    1
    40    89    88    1
    41   145   143   ar
    42    11    17   am
    43    11    12    2
    44   162   160    1
    45   123   124    2
    46   123   122    1
    47    17    18    1
    48    95    92    1
    49    95    96    1
    50    92    91    1
    51   128   127    1
    52    29    30    1
    53    29    26    1
    54   144   142   ar
    55    88    87    1
    56   160   159    1
    57    31    30    1
    58   121   122    1
    59    86    85    2
    60   125   122    1
    61   125   126    1
    62    97    98    1
    63    97    96    1
    64    98    99    2
    65    25    26    1
    66   143   142   ar
    67    26    27    1
    68    24    22   am
    69    21    18    1
    70    21    22    1
    71    18    19    1
    72   142   141    1
    73   127   126    1
    74    22    23    2
    75   101    99    1
    76   159   156    1
    77    19    20    2
    78    85    84    1
    79    99   100    1
    80    87    84    1
    81   163   164    1
    82   158   157    2
    83   156   157    1
    84   156   155    1
    85    84    83    1
    86   171   169   ar
    87   171   173   ar
    88    27    33   am
    89    27    28    2
    90   169   168   ar
    91   141   138    1
    92   136   134    1
    93    33    34    1
    94   173   172   ar
    95   164   165    1
    96   164   167    1
    97   140   139    2
    98   138   139    1
    99   138   137    1
   100   168   167    1
   101   168   170   ar
   102   139   148   am
   103    44    43    2
   104   165   166    2
   105   172   170   ar
   106   134   135    1
   107   134   133    1
   108    34    35    1
   109    79    78    2
   110    42    43    1
   111    42    41    1
   112   148   149    1
   113   149   152    1
   114   149   150    1
   115    43    45   am
   116    71    70    2
   117    81    80    1
   118   151   150    2
   119   153   152    1
   120    35    36    2
   121    77    78    1
   122    77    80    1
   123    77    76    1
   124   133   130    1
   125   130   129    1
   126   130   131    1
   127   152   154    1
   128    37    38    1
   129    82    80    1
   130   181   180    1
   131   180   179    1
   132    41    38    1
   133   132   131    2
   134    70    76   am
   135    70    69    1
   136    74    75    1
   137    74    73    1
   138    38    39    1
   139    72    69    1
   140    72    73    1
   141    66    67    1
   142    66    65    1
   143    69    68    1
   144   179   178    1
   145   189   187    1
   146    39    40    2
   147    57    59   ar
   148    57    55   ar
   149    65    64    1
   150    63    62    2
   151   178   175    1
   152    59    58   ar
   153    54    55   ar
   154    54    52   ar
   155   188   186    1
   156    55    53   ar
   157   187   186    1
   158   176   175    1
   159   176   177    2
   160    62    61    1
   161   175   174    1
   162    61    64    1
   163    61    60    1
   164   186   183    1
   165    58    56   ar
   166    52    51   ar
   167    49    48    2
   168    53    56   ar
   169    53    51   ar
   170    51    50    1
   171    60    48   am
   172    48    47    1
   173   183   182    1
   174   183   184    1
   175   184   185    2
   176    50    47    1
   177    47    46    1
