@<TRIPOS>MOLECULE
tmp/2amcA00.pdb
 126 121 0 0 0
SMALL
GASTEIGER

@<TRIPOS>ATOM
      1  N         13.6860   63.8970   26.2640 N.3    65  TRP65      -0.1241
      2  CA        13.7760   62.4350   26.2190 C.3    65  TRP65       0.1605
      3  C         13.0500   61.7600   27.3860 C.2    65  TRP65       0.2264
      4  O         13.5370   61.7860   28.5170 O.2    65  TRP65      -0.2867
      5  CB        15.2510   61.9940   26.2430 C.3    65  TRP65       0.0550
      6  CG        16.0450   62.4110   25.0310 C.ar   65  TRP65       0.0003
      7  CD1       16.0470   61.8100   23.8050 C.ar   65  TRP65       0.0946
      8  CD2       16.8540   63.5900   24.9010 C.ar   65  TRP65       0.0152
      9  NE1       16.7950   62.5470   22.9170 N.ar   65  TRP65      -0.2442
     10  CE2       17.3020   63.6440   23.5630 C.ar   65  TRP65       0.0810
     11  CE3       17.2380   64.6100   25.7850 C.ar   65  TRP65       0.0012
     12  CZ2       18.1160   64.6810   23.0840 C.ar   65  TRP65       0.0191
     13  CZ3       18.0470   65.6380   25.3070 C.ar   65  TRP65       0.0001
     14  CH2       18.4750   65.6640   23.9680 C.ar   65  TRP65       0.0015
     15  N         18.3040   57.4230   22.5900 N.3    94  HIS94      -0.1241
     16  CA        18.8190   57.7860   21.2740 C.3    94  HIS94       0.1621
     17  C         20.1740   57.1270   21.0640 C.2    94  HIS94       0.2264
     18  O         20.7720   56.6350   22.0110 O.2    94  HIS94      -0.2867
     19  CB        18.9210   59.3110   21.1020 C.3    94  HIS94       0.0745
     20  CG        19.6220   60.0230   22.2210 C.ar   94  HIS94       0.0817
     21  ND1       19.6490   61.3990   22.3140 N.ar   94  HIS94      -0.2268
     22  CD2       20.3020   59.5590   23.2980 C.ar   94  HIS94       0.1154
     23  CE1       20.3140   61.7520   23.4010 C.ar   94  HIS94       0.1986
     24  NE2       20.7210   60.6550   24.0160 N.ar   94  HIS94      -0.2212
     25  N         22.9210   58.6110   20.1970 N.3    96  SER96      -0.1217
     26  CA        23.9990   59.5330   20.5740 C.3    96  SER96       0.1889
     27  C         25.0600   58.9860   21.5520 C.2    96  SER96       0.2288
     28  O         26.2530   59.2310   21.3670 O.2    96  SER96      -0.2866
     29  CB        23.4040   60.8200   21.1590 C.3    96  SER96       0.2089
     30  OG        22.5520   61.4710   20.2290 O.3    96  SER96      -0.2183
     31  N         28.2780   57.6990   20.1530 N.3    99  GLN99      -0.1245
     32  CA        29.3540   58.5140   19.6300 C.3    99  GLN99       0.1566
     33  C         30.3770   58.8090   20.7310 C.2    99  GLN99       0.2260
     34  O         31.5350   59.1180   20.4470 O.2    99  GLN99      -0.2867
     35  CB        28.8030   59.7860   18.9560 C.3    99  GLN99       0.0367
     36  CG        28.7990   61.0750   19.7310 C.3    99  GLN99       0.0905
     37  CD        27.9720   62.1380   19.0000 C.2    99  GLN99       0.2608
     38  OE1       28.1480   63.3480   19.1930 O.2    99  GLN99      -0.2717
     39  NE2       27.0530   61.6790   18.1610 N.am   99  GLN99      -0.0878
     40  N         11.6610   55.3800   24.1090 N.3   120  ARG120     -0.1245
     41  CA        11.1440   56.5750   24.7730 C.3   120  ARG120      0.1563
     42  C          9.8350   56.1790   25.4440 C.2   120  ARG120      0.2260
     43  O          9.0270   55.4600   24.8530 O.2   120  ARG120     -0.2867
     44  CB        10.8270   57.6860   23.7630 C.3   120  ARG120      0.0307
     45  CG        11.9360   58.0710   22.8070 C.3   120  ARG120      0.0489
     46  CD        12.9690   58.9750   23.4410 C.3   120  ARG120      0.2205
     47  NE        13.9310   59.4360   22.4410 N.pl3 120  ARG120     -0.0865
     48  CZ        13.7010   60.3970   21.5510 C.cat 120  ARG120      0.5346
     49  NH1       12.5350   61.0220   21.5310 N.pl3 120  ARG120      0.1354
     50  NH2       14.6350   60.7230   20.6660 N.pl3 120  ARG120      0.1354
     51  N         16.8790   54.9730   15.0460 N.3   134  GLN134     -0.1245
     52  CA        17.5550   56.2070   14.6700 C.3   134  GLN134      0.1566
     53  C         18.8520   55.8550   13.9550 C.2   134  GLN134      0.2260
     54  O         19.3410   54.7280   14.0690 O.2   134  GLN134     -0.2867
     55  CB        17.9050   57.0300   15.9060 C.3   134  GLN134      0.0367
     56  CG        16.8070   57.9130   16.4370 C.3   134  GLN134      0.0905
     57  CD        17.2700   58.7290   17.6270 C.2   134  GLN134      0.2608
     58  OE1       16.6460   59.7310   17.9900 O.2   134  GLN134     -0.2717
     59  NE2       18.3680   58.3020   18.2470 N.am  134  GLN134     -0.0878
     60  N         22.5660   57.5710   13.6510 N.3   136  GLU136     -0.1245
     61  CA        23.4330   58.6500   14.0670 C.3   136  GLU136      0.1567
     62  C         24.6180   58.7350   13.1420 C.2   136  GLU136      0.2260
     63  O         25.0410   57.7320   12.5680 O.2   136  GLU136     -0.2867
     64  CB        23.9030   58.4240   15.4980 C.3   136  GLU136      0.0388
     65  CG        23.0620   59.1600   16.5150 C.3   136  GLU136      0.1160
     66  CD        23.7560   60.4000   16.9900 C.2   136  GLU136      0.3649
     67  OE1       24.5020   60.9810   16.1830 O.co2 136  GLU136     -0.2457
     68  OE2       23.5690   60.8000   18.1540 O.co2 136  GLU136     -0.2457
     69  N         20.4210   71.3950   21.0430 N.3   174  PHE174     -0.1241
     70  CA        20.8400   70.0790   21.5030 C.3   174  PHE174      0.1605
     71  C         21.9890   70.3380   22.4570 C.2   174  PHE174      0.2264
     72  O         22.9160   71.0670   22.1240 O.2   174  PHE174     -0.2867
     73  CB        21.3220   69.2170   20.3450 C.3   174  PHE174      0.0534
     74  CG        20.2320   68.7890   19.4170 C.ar  174  PHE174     -0.0203
     75  CD1       19.2070   67.9660   19.8660 C.ar  174  PHE174     -0.0042
     76  CD2       20.2130   69.2320   18.0960 C.ar  174  PHE174     -0.0042
     77  CE1       18.1780   67.5920   19.0130 C.ar  174  PHE174     -0.0003
     78  CE2       19.1860   68.8630   17.2370 C.ar  174  PHE174     -0.0003
     79  CZ        18.1690   68.0430   17.6960 C.ar  174  PHE174     -0.0000
     80  N         24.4140   68.5660   23.1400 N.3   176  PHE176     -0.1227
     81  CA        25.6630   68.0300   22.5950 C.3   176  PHE176      0.1736
     82  C         26.2270   68.6610   21.3150 C.2   176  PHE176      0.2595
     83  O         27.2030   68.1410   20.7580 O.2   176  PHE176     -0.2718
     84  CB        25.5710   66.5070   22.4100 C.3   176  PHE176      0.0547
     85  CG        24.2110   66.0170   21.9930 C.ar  176  PHE176     -0.0202
     86  CD1       23.1930   65.8650   22.9280 C.ar  176  PHE176     -0.0042
     87  CD2       23.9450   65.6970   20.6610 C.ar  176  PHE176     -0.0042
     88  CE1       21.9230   65.3990   22.5440 C.ar  176  PHE176     -0.0003
     89  CE2       22.6860   65.2320   20.2700 C.ar  176  PHE176     -0.0003
     90  CZ        21.6730   65.0840   21.2200 C.ar  176  PHE176     -0.0000
     91  N         25.6300   69.7580   20.8360 N.am  177  VAL177     -0.1980
     92  CA        26.1610   70.4560   19.6570 C.3   177  VAL177      0.1595
     93  C         26.0140   71.9810   19.7560 C.2   177  VAL177      0.2287
     94  O         25.1110   72.4880   20.4260 O.2   177  VAL177     -0.2864
     95  CB        25.5010   69.9870   18.3110 C.3   177  VAL177      0.0276
     96  CG1       25.8830   68.5450   18.0100 C.3   177  VAL177      0.0022
     97  CG2       23.9860   70.1640   18.3640 C.3   177  VAL177      0.0022
     98  N         18.2540   66.1450   13.4970 N.3   198  GLY198     -0.1210
     99  CA        18.9830   67.2380   14.1030 C.3   198  GLY198      0.1956
    100  C         20.4390   67.0420   13.7870 C.2   198  GLY198      0.2611
    101  O         20.7990   65.9950   13.2550 O.2   198  GLY198     -0.2717
    102  N         21.2700   68.0280   14.1170 N.am  199  ALA199     -0.1979
    103  CA        22.7010   67.9530   13.8440 C.3   199  ALA199      0.1597
    104  C         23.4140   69.2070   14.3470 C.2   199  ALA199      0.2287
    105  O         22.7910   70.1000   14.9380 O.2   199  ALA199     -0.2864
    106  CB        22.9410   67.7910   12.3360 C.3   199  ALA199      0.0319
    107  N         27.8060   66.0790   13.8850 N.3   230  ALA230     -0.1231
    108  CA        27.0240   64.9010   14.2200 C.3   230  ALA230      0.1694
    109  C         25.5990   65.1770   13.8000 C.2   230  ALA230      0.2592
    110  O         25.1600   66.3320   13.7880 O.2   230  ALA230     -0.2718
    111  CB        27.0770   64.6380   15.7330 C.3   230  ALA230      0.0304
    112  N         24.8800   64.1200   13.4410 N.am  231  PHE231     -0.1962
    113  CA        23.4860   64.2670   13.0630 C.3   231  PHE231      0.1771
    114  C         22.7500   63.0290   13.5320 C.2   231  PHE231      0.2620
    115  O         23.3750   62.0190   13.8610 O.2   231  PHE231     -0.2715
    116  CB        23.3380   64.4620   11.5450 C.3   231  PHE231      0.0574
    117  CG        23.8830   63.3320   10.7180 C.ar  231  PHE231     -0.0200
    118  CD1       23.2670   62.0760   10.7250 C.ar  231  PHE231     -0.0042
    119  CD2       25.0070   63.5280    9.9110 C.ar  231  PHE231     -0.0042
    120  CE1       23.7580   61.0300    9.9410 C.ar  231  PHE231     -0.0003
    121  CE2       25.5110   62.4870    9.1170 C.ar  231  PHE231     -0.0003
    122  CZ        24.8830   61.2320    9.1330 C.ar  231  PHE231     -0.0000
    123  N         21.4260   63.1180   13.5860 N.am  232  GLY232     -0.1954
    124  CA        20.6190   61.9850   14.0080 C.3   232  GLY232      0.1869
    125  C         19.2910   62.0270   13.2750 C.2   232  GLY232      0.2309
    126  O         18.6320   63.0700   13.2510 O.2   232  GLY232     -0.2863
@<TRIPOS>BOND
     1   121   122   ar
     2   121   119   ar
     3   122   120   ar
     4   119   117   ar
     5   120   118   ar
     6   117   118   ar
     7   117   116    1
     8   116   113    1
     9   106   103    1
    10    63    62    2
    11   113   112    1
    12   113   114    1
    13    62    61    1
    14   126   125    2
    15   101   100    2
    16   125   124    1
    17   112   109   am
    18    98    99    1
    19   114   123   am
    20   114   115    2
    21   123   124    1
    22    60    61    1
    23   100    99    1
    24   100   102   am
    25   110   109    2
    26   109   108    1
    27   103   102    1
    28   103   104    1
    29   107   108    1
    30    53    54    2
    31    53    52    1
    32    61    64    1
    33   108   111    1
    34   104   105    2
    35    52    51    1
    36    52    55    1
    37    64    65    1
    38    55    56    1
    39    67    66   ar
    40    56    57    1
    41    65    66    1
    42    66    68   ar
    43    78    79   ar
    44    78    76   ar
    45    57    58    2
    46    57    59   am
    47    79    77   ar
    48    96    95    1
    49    76    74   ar
    50    39    37   am
    51    95    97    1
    52    95    92    1
    53    35    32    1
    54    35    36    1
    55    37    38    2
    56    37    36    1
    57    77    75   ar
    58    74    75   ar
    59    74    73    1
    60    32    31    1
    61    32    33    1
    62    92    93    1
    63    92    91    1
    64    93    94    2
    65    25    26    1
    66    30    29    1
    67    89    87   ar
    68    89    90   ar
    69    73    70    1
    70    34    33    2
    71    26    29    1
    72    26    27    1
    73    87    85   ar
    74    50    48    1
    75    83    82    2
    76    91    82   am
    77    69    70    1
    78    17    16    1
    79    17    18    2
    80    19    16    1
    81    19    20    1
    82    90    88   ar
    83    16    15    1
    84    82    81    1
    85    28    27    2
    86    70    71    1
    87    49    48    1
    88    48    47    2
    89    85    84    1
    90    85    86   ar
    91    72    71    2
    92    20    21   ar
    93    20    22   ar
    94    21    23   ar
    95    84    81    1
    96    47    46    1
    97    88    86   ar
    98    81    80    1
    99    45    46    1
   100    45    44    1
   101     9    10   ar
   102     9     7   ar
   103    12    10   ar
   104    12    14   ar
   105    22    24   ar
   106    23    24   ar
   107    10     8   ar
   108    44    41    1
   109     7     6   ar
   110    14    13   ar
   111    40    41    1
   112    41    42    1
   113    43    42    2
   114     8     6   ar
   115     8    11   ar
   116     6     5    1
   117    13    11   ar
   118     2     5    1
   119     2     1    1
   120     2     3    1
   121     3     4    2
