@<TRIPOS>MOLECULE
tmp/2amcB00.pdb
 146 137 0 0 0
SMALL
GASTEIGER

@<TRIPOS>ATOM
      1  N         -3.2470   93.2770   38.1920 N.3   246  VAL246     -0.1245
      2  CA        -2.9930   91.9070   37.8000 C.3   246  VAL246      0.1561
      3  C         -2.5690   91.8180   36.3410 C.2   246  VAL246      0.2260
      4  O         -1.6020   91.1210   36.0100 O.2   246  VAL246     -0.2867
      5  CB        -4.2330   91.0320   38.0450 C.3   246  VAL246      0.0252
      6  CG1       -4.0050   89.6320   37.5020 C.3   246  VAL246      0.0019
      7  CG2       -4.5230   90.9770   39.5370 C.3   246  VAL246      0.0019
      8  N          1.0240   92.9640   35.6760 N.3   249  THR249     -0.1203
      9  CA         2.0400   91.9860   36.0280 C.3   249  THR249      0.1994
     10  C          2.1040   90.8840   34.9770 C.2   249  THR249      0.2617
     11  O          3.1870   90.4010   34.6590 O.2   249  THR249     -0.2717
     12  CB         1.8040   91.3410   37.4130 C.3   249  THR249      0.1784
     13  OG1        0.5180   90.7140   37.4460 O.3   249  THR249     -0.2211
     14  CG2        1.9120   92.3780   38.5080 C.3   249  THR249      0.0376
     15  N          0.9640   90.4770   34.4270 N.am  250  ASN250     -0.1974
     16  CA         1.0020   89.4300   33.4110 C.3   250  ASN250      0.1688
     17  C          1.6100   89.9460   32.1030 C.2   250  ASN250      0.2292
     18  O          2.3710   89.2370   31.4260 O.2   250  ASN250     -0.2864
     19  CB        -0.3970   88.8690   33.1480 C.3   250  ASN250      0.1181
     20  CG        -0.8600   87.9340   34.2410 C.2   250  ASN250      0.2629
     21  OD1       -0.0920   87.1170   34.7290 O.2   250  ASN250     -0.2716
     22  ND2       -2.1240   88.0450   34.6230 N.am  250  ASN250     -0.0877
     23  N          5.3370   90.1880   32.4420 N.3   253  MET253     -0.1245
     24  CA         5.8960   88.8490   32.4660 C.3   253  MET253      0.1570
     25  C          6.0660   88.3770   31.0310 C.2   253  MET253      0.2261
     26  O          7.1370   87.8950   30.6520 O.2   253  MET253     -0.2867
     27  CB         4.9730   87.8800   33.2080 C.3   253  MET253      0.0387
     28  CG         5.4130   86.4260   33.0870 C.3   253  MET253      0.0595
     29  SD         4.3140   85.2710   33.9240 S.3   253  MET253     -0.1393
     30  CE         2.7610   85.4910   32.9800 C.3   253  MET253      0.0692
     31  N          8.3360   86.6640   35.5700 N.3   259  PRO259     -0.2102
     32  CA         7.1100   86.4920   36.3520 C.3   259  PRO259      0.1504
     33  C          7.1720   87.4380   37.5500 C.2   259  PRO259      0.2576
     34  O          8.2430   87.6270   38.1340 O.2   259  PRO259     -0.2718
     35  CB         7.1850   85.0360   36.7950 C.3   259  PRO259      0.0282
     36  CG         7.9570   84.3780   35.6940 C.3   259  PRO259      0.0208
     37  CD         9.0530   85.3860   35.4330 C.3   259  PRO259      0.0893
     38  N          6.0390   88.0380   37.9030 N.am  260  MET260     -0.1966
     39  CA         5.9670   88.9490   39.0370 C.3   260  MET260      0.1736
     40  C          4.5660   88.8740   39.6040 C.2   260  MET260      0.2616
     41  O          3.6290   88.4980   38.9110 O.2   260  MET260     -0.2715
     42  CB         6.2950   90.3820   38.6200 C.3   260  MET260      0.0427
     43  CG         5.4530   90.9260   37.4760 C.3   260  MET260      0.0599
     44  SD         5.8170   92.6780   37.1460 S.3   260  MET260     -0.1393
     45  CE         7.4780   92.5430   36.4750 C.3   260  MET260      0.0692
     46  N          4.4130   89.2350   40.8660 N.am  261  HIS261     -0.1973
     47  CA         3.1110   89.1370   41.5040 C.3   261  HIS261      0.1656
     48  C          2.8760   90.2840   42.4520 C.2   261  HIS261      0.2291
     49  O          3.7620   90.6520   43.2290 O.2   261  HIS261     -0.2864
     50  CB         3.0250   87.8270   42.2890 C.3   261  HIS261      0.0771
     51  CG         1.7840   87.6960   43.1110 C.ar  261  HIS261      0.0820
     52  ND1        0.5220   87.9040   42.5910 N.ar  261  HIS261     -0.2267
     53  CD2        1.6120   87.3970   44.4190 C.ar  261  HIS261      0.1154
     54  CE1       -0.3730   87.7430   43.5490 C.ar  261  HIS261      0.1986
     55  NE2        0.2620   87.4350   44.6670 N.ar  261  HIS261     -0.2212
     56  N         -4.1700   80.6350   44.0970 N.3   286  LEU286     -0.1245
     57  CA        -4.9980   81.4320   43.2030 C.3   286  LEU286      0.1561
     58  C         -6.0680   80.6690   42.4310 C.2   286  LEU286      0.2260
     59  O         -7.1210   81.2240   42.1260 O.2   286  LEU286     -0.2867
     60  CB        -4.0900   82.1610   42.2100 C.3   286  LEU286      0.0270
     61  CG        -4.0110   83.6630   42.4210 C.3   286  LEU286      0.0019
     62  CD1       -2.8820   84.2870   41.6010 C.3   286  LEU286      0.0001
     63  CD2       -5.3620   84.2210   42.0350 C.3   286  LEU286      0.0001
     64  N          2.9130   80.4040   46.5980 N.3   313  LEU313     -0.1245
     65  CA         3.8610   79.3400   46.2900 C.3   313  LEU313      0.1561
     66  C          4.8670   80.0280   45.3740 C.2   313  LEU313      0.2260
     67  O          4.6050   80.2110   44.1880 O.2   313  LEU313     -0.2867
     68  CB         3.1680   78.2070   45.5320 C.3   313  LEU313      0.0270
     69  CG         3.2610   76.7850   46.0940 C.3   313  LEU313      0.0019
     70  CD1        2.8800   75.8080   44.9840 C.3   313  LEU313      0.0001
     71  CD2        4.6740   76.4730   46.5970 C.3   313  LEU313      0.0001
     72  N          7.3560   81.5700   42.8360 N.3   315  GLY315     -0.1210
     73  CA         7.6710   81.2600   41.4500 C.3   315  GLY315      0.1956
     74  C          6.7580   80.2860   40.7240 C.2   315  GLY315      0.2612
     75  O          7.0880   79.8230   39.6310 O.2   315  GLY315     -0.2717
     76  N          5.6150   79.9650   41.3220 N.am  316  VAL316     -0.1965
     77  CA         4.6670   79.0480   40.7000 C.3   316  VAL316      0.1727
     78  C          3.2710   79.6580   40.6450 C.2   316  VAL316      0.2616
     79  O          2.6730   79.7570   39.5790 O.2   316  VAL316     -0.2715
     80  CB         4.5850   77.6910   41.4650 C.3   316  VAL316      0.0290
     81  CG1        3.6070   76.7500   40.7590 C.3   316  VAL316      0.0023
     82  CG2        5.9510   77.0480   41.5480 C.3   316  VAL316      0.0023
     83  N          2.7490   80.0760   41.7900 N.am  317  MET317     -0.1963
     84  CA         1.4050   80.6500   41.8200 C.3   317  MET317      0.1736
     85  C          1.1280   81.4100   43.1120 C.2   317  MET317      0.2617
     86  O          1.4110   80.9220   44.2040 O.2   317  MET317     -0.2715
     87  CB         0.3700   79.5330   41.6440 C.3   317  MET317      0.0427
     88  CG        -1.0590   80.0150   41.5340 C.3   317  MET317      0.0599
     89  SD        -2.2490   78.6670   41.3020 S.3   317  MET317     -0.1393
     90  CE        -1.8000   78.1030   39.6470 C.3   317  MET317      0.0692
     91  N          0.5730   82.6100   42.9800 N.am  318  GLY318     -0.1955
     92  CA         0.2700   83.4130   44.1520 C.3   318  GLY318      0.1869
     93  C         -0.8940   82.8570   44.9420 C.2   318  GLY318      0.2309
     94  O         -1.6580   82.0380   44.4360 O.2   318  GLY318     -0.2863
     95  N         -4.6290   88.1070   46.5670 N.3   323  GLU323     -0.1245
     96  CA        -4.8600   88.4650   45.1720 C.3   323  GLU323      0.1567
     97  C         -5.3320   89.9350   45.1650 C.2   323  GLU323      0.2260
     98  O         -6.1320   90.3320   46.0170 O.2   323  GLU323     -0.2867
     99  CB        -5.9840   87.5830   44.6220 C.3   323  GLU323      0.0388
    100  CG        -5.7010   86.8250   43.3420 C.3   323  GLU323      0.1160
    101  CD        -5.6360   87.7060   42.1000 C.2   323  GLU323      0.3649
    102  OE1       -6.4660   88.6410   41.9900 O.co2 323  GLU323     -0.2457
    103  OE2       -4.7710   87.4470   41.2240 O.co2 323  GLU323     -0.2457
    104  N          6.3620   91.7230   43.8360 N.3   334  GLU334     -0.1245
    105  CA         7.4050   90.7250   43.8460 C.3   334  GLU334      0.1567
    106  C          8.0020   90.5330   42.4590 C.2   334  GLU334      0.2260
    107  O          7.2940   90.1980   41.5130 O.2   334  GLU334     -0.2867
    108  CB         6.8400   89.3980   44.3460 C.3   334  GLU334      0.0388
    109  CG         7.7620   88.2280   44.1780 C.3   334  GLU334      0.1160
    110  CD         7.0880   86.9220   44.5290 C.2   334  GLU334      0.3649
    111  OE1        7.4420   85.8960   43.9080 O.co2 334  GLU334     -0.2457
    112  OE2        6.1960   86.9250   45.4110 O.co2 334  GLU334     -0.2457
    113  N         14.3830   82.9270   41.0510 N.3   338  PHE338     -0.1241
    114  CA        14.3520   81.7830   41.9520 C.3   338  PHE338      0.1605
    115  C         15.2200   80.6570   41.4300 C.2   338  PHE338      0.2264
    116  O         15.5410   80.6020   40.2390 O.2   338  PHE338     -0.2867
    117  CB        12.9240   81.2560   42.1040 C.3   338  PHE338      0.0534
    118  CG        11.9870   82.2210   42.7620 C.ar  338  PHE338     -0.0203
    119  CD1       12.1330   82.5430   44.1130 C.ar  338  PHE338     -0.0042
    120  CD2       10.9550   82.8110   42.0350 C.ar  338  PHE338     -0.0042
    121  CE1       11.2650   83.4390   44.7340 C.ar  338  PHE338     -0.0003
    122  CE2       10.0800   83.7110   42.6460 C.ar  338  PHE338     -0.0003
    123  CZ        10.2370   84.0260   44.0030 C.ar  338  PHE338     -0.0000
    124  N          2.7400   76.5190   35.3460 N.3   354  THR354     -0.1218
    125  CA         2.2230   77.8560   35.0860 C.3   354  THR354      0.1862
    126  C          3.1670   78.6840   34.2430 C.2   354  THR354      0.2287
    127  O          4.3100   78.3020   34.0300 O.2   354  THR354     -0.2866
    128  CB         1.9560   78.6190   36.4070 C.3   354  THR354      0.1770
    129  OG1        3.1690   79.2320   36.8690 O.3   354  THR354     -0.2211
    130  CG2        1.4450   77.6660   37.4670 C.3   354  THR354      0.0375
    131  N          4.4660   81.2020   35.1180 N.3   356  ALA356     -0.1245
    132  CA         5.5470   81.5530   36.0330 C.3   356  ALA356      0.1562
    133  C          6.5580   80.4210   36.2210 C.2   356  ALA356      0.2260
    134  O          7.7460   80.6030   35.9380 O.2   356  ALA356     -0.2867
    135  CB         4.9840   81.9710   37.3840 C.3   356  ALA356      0.0290
    136  N         10.6570   80.3260   35.3700 N.3   360  PHE360     -0.1241
    137  CA        11.6770   80.1560   36.3990 C.3   360  PHE360      0.1605
    138  C         12.4700   78.8550   36.2290 C.2   360  PHE360      0.2264
    139  O         13.6610   78.8080   36.5390 O.2   360  PHE360     -0.2867
    140  CB        11.0500   80.2270   37.7890 C.3   360  PHE360      0.0534
    141  CG        10.7210   81.6210   38.2180 C.ar  360  PHE360     -0.0203
    142  CD1       11.7170   82.5930   38.2620 C.ar  360  PHE360     -0.0042
    143  CD2        9.4130   81.9810   38.5340 C.ar  360  PHE360     -0.0042
    144  CE1       11.4190   83.9140   38.6080 C.ar  360  PHE360     -0.0003
    145  CE2        9.0960   83.2920   38.8830 C.ar  360  PHE360     -0.0003
    146  CZ        10.1050   84.2640   38.9180 C.ar  360  PHE360     -0.0000
@<TRIPOS>BOND
     1    26    25    2
     2    25    24    1
     3    18    17    2
     4    17    16    1
     5    23    24    1
     6    24    27    1
     7    30    29    1
     8    28    27    1
     9    28    29    1
    10    19    16    1
    11    19    20    1
    12    16    15    1
    13   127   126    2
    14    20    22   am
    15    20    21    2
    16   126   125    1
    17    15    10   am
    18    11    10    2
    19    10     9    1
    20   125   124    1
    21   125   128    1
    22   131   132    1
    23   136   137    1
    24    37    31    1
    25    37    36    1
    26    31    32    1
    27     8     9    1
    28    36    35    1
    29   134   133    2
    30     4     3    2
    31     9    12    1
    32   132   133    1
    33   132   135    1
    34   138   137    1
    35   138   139    2
    36     3     2    1
    37    32    35    1
    38    32    33    1
    39   137   140    1
    40   128   129    1
    41   128   130    1
    42    45    44    1
    43    44    43    1
    44    12    13    1
    45    12    14    1
    46    43    42    1
    47     6     5    1
    48    33    38   am
    49    33    34    2
    50   140   141    1
    51     2     5    1
    52     2     1    1
    53    38    39    1
    54     5     7    1
    55   141   142   ar
    56   141   143   ar
    57   142   144   ar
    58   143   145   ar
    59   144   146   ar
    60    42    39    1
    61   145   146   ar
    62    41    40    2
    63    39    40    1
    64    79    78    2
    65    40    46   am
    66    75    74    2
    67    90    89    1
    68   116   115    2
    69    78    77    1
    70    78    83   am
    71    77    76    1
    72    77    80    1
    73    74    76   am
    74    74    73    1
    75    81    80    1
    76    46    47    1
    77   113   114    1
    78   103   101   ar
    79    89    88    1
    80   115   114    1
    81    73    72    1
    82    80    82    1
    83    47    50    1
    84    47    48    1
    85   107   106    2
    86    88    87    1
    87    62    61    1
    88    87    84    1
    89    83    84    1
    90    84    85    1
    91   114   117    1
    92   102   101   ar
    93    63    61    1
    94   120   122   ar
    95   120   118   ar
    96   101   100    1
    97   117   118    1
    98    59    58    2
    99    60    61    1
   100    60    57    1
   101    50    51    1
   102    58    57    1
   103    48    49    2
   104   106   105    1
   105    52    51   ar
   106    52    54   ar
   107   122   123   ar
   108   118   119   ar
   109    91    85   am
   110    91    92    1
   111    51    53   ar
   112    85    86    2
   113    57    56    1
   114   100    99    1
   115    54    55   ar
   116   104   105    1
   117   105   108    1
   118   111   110   ar
   119   123   121   ar
   120   119   121   ar
   121    92    93    1
   122   109   108    1
   123   109   110    1
   124    67    66    2
   125    53    55   ar
   126    94    93    2
   127   110   112   ar
   128    99    96    1
   129    70    69    1
   130    97    96    1
   131    97    98    2
   132    96    95    1
   133    66    65    1
   134    68    69    1
   135    68    65    1
   136    69    71    1
   137    65    64    1
