@<TRIPOS>MOLECULE
tmp/2amdA00.pdb
 219 217 0 0 0
SMALL
GASTEIGER

@<TRIPOS>ATOM
      1  N         92.3320   27.1450    7.7370 N.3    28  THR28      -0.1203
      2  CA        91.1550   26.3140    7.5240 C.3    28  THR28       0.1994
      3  C         91.4450   24.8470    7.8450 C.2    28  THR28       0.2619
      4  O         90.5920   23.9870    7.6520 O.2    28  THR28      -0.2717
      5  CB        90.6800   26.4020    6.0610 C.3    28  THR28       0.1784
      6  OG1       89.5020   25.6050    5.8900 O.3    28  THR28      -0.2211
      7  CG2       91.7640   25.8950    5.1250 C.3    28  THR28       0.0376
      8  N         92.6500   24.5690    8.3350 N.am   29  THR29      -0.1938
      9  CA        93.0540   23.2030    8.6610 C.3    29  THR29       0.2028
     10  C         92.8670   22.8720   10.1360 C.2    29  THR29       0.2643
     11  O         93.5160   23.4540   11.0070 O.2    29  THR29      -0.2714
     12  CB        94.5280   22.9640    8.2740 C.3    29  THR29       0.1808
     13  OG1       94.6760   23.1300    6.8620 O.3    29  THR29      -0.2208
     14  CG2       94.9700   21.5610    8.6540 C.3    29  THR29       0.0379
     15  N         91.9820   21.9210   10.4070 N.am   30  THR30      -0.1936
     16  CA        91.7010   21.5100   11.7750 C.3    30  THR30       0.2028
     17  C         92.0150   20.0440   12.0180 C.2    30  THR30       0.2642
     18  O         91.6660   19.1860   11.2090 O.2    30  THR30      -0.2714
     19  CB        90.2230   21.7530   12.1180 C.3    30  THR30       0.1808
     20  OG1       89.9760   23.1630   12.1560 O.3    30  THR30      -0.2208
     21  CG2       89.8620   21.1280   13.4670 C.3    30  THR30       0.0379
     22  N         92.6880   19.7680   13.1320 N.am   31  LEU31      -0.1977
     23  CA        93.0190   18.4000   13.5100 C.3    31  LEU31       0.1596
     24  C         93.1230   18.2710   15.0260 C.2    31  LEU31       0.2287
     25  O         92.7610   19.1970   15.7580 O.2    31  LEU31      -0.2864
     26  CB        94.3120   17.9320   12.8230 C.3    31  LEU31       0.0297
     27  CG        95.5650   18.8060   12.7800 C.3    31  LEU31       0.0022
     28  CD1       96.1310   18.9880   14.1710 C.3    31  LEU31       0.0001
     29  CD2       96.5990   18.1430   11.8770 C.3    31  LEU31       0.0001
     30  N        101.8540   19.1270    9.7590 N.3    45  HIS45      -0.1241
     31  CA       101.1010   19.4610    8.5470 C.3    45  HIS45       0.1621
     32  C         99.8320   20.2690    8.8230 C.2    45  HIS45       0.2264
     33  O         99.0760   20.5730    7.9000 O.2    45  HIS45      -0.2867
     34  CB       100.7650   18.2120    7.7040 C.3    45  HIS45       0.0745
     35  CG        99.8340   17.2360    8.3630 C.ar   45  HIS45       0.0817
     36  ND1      100.2750   16.0700    8.9470 N.ar   45  HIS45      -0.2268
     37  CD2       98.4810   17.2190    8.4580 C.ar   45  HIS45       0.1154
     38  CE1       99.2340   15.3680    9.3710 C.ar   45  HIS45       0.1986
     39  NE2       98.1380   16.0420    9.0860 N.ar   45  HIS45      -0.2212
     40  N         99.6590   23.3610    6.8980 N.3    48  CYS48      -0.1235
     41  CA        99.5230   23.1870    5.4540 C.3    48  CYS48       0.1677
     42  C         98.1050   23.4220    4.9600 C.2    48  CYS48       0.2270
     43  O         97.1370   23.1930    5.6830 O.2    48  CYS48      -0.2867
     44  CB        99.9230   21.7700    5.0430 C.3    48  CYS48       0.0956
     45  SG       101.6550   21.3920    5.2120 S.3    48  CYS48      -0.0801
     46  N        100.6710   19.9690    0.1290 N.3    53  MET53      -0.1245
     47  CA       100.9630   18.7180    0.8240 C.3    53  MET53       0.1570
     48  C        101.8010   17.7330    0.0120 C.2    53  MET53       0.2261
     49  O        102.2200   16.6970    0.5300 O.2    53  MET53      -0.2867
     50  CB        99.6610   18.0440    1.2620 C.3    53  MET53       0.0387
     51  CG        98.8280   18.8970    2.2040 C.3    53  MET53       0.0595
     52  SD        97.4090   18.0220    2.8730 S.3    53  MET53      -0.1393
     53  CE        97.8620   17.8990    4.5970 C.3    53  MET53       0.0692
     54  N        108.1020   22.8530    5.3070 N.3    58  TYR58      -0.1241
     55  CA       107.6260   23.1900    6.6410 C.3    58  TYR58       0.1605
     56  C        108.3370   24.3430    7.3410 C.2    58  TYR58       0.2264
     57  O        107.6810   25.2210    7.9060 O.2    58  TYR58      -0.2867
     58  CB       107.6510   21.9420    7.5340 C.3    58  TYR58       0.0534
     59  CG       106.6580   20.8790    7.1040 C.ar   58  TYR58      -0.0201
     60  CD1      107.0630   19.7740    6.3560 C.ar   58  TYR58      -0.0009
     61  CD2      105.3060   20.9900    7.4340 C.ar   58  TYR58      -0.0009
     62  CE1      106.1470   18.8020    5.9490 C.ar   58  TYR58       0.0417
     63  CE2      104.3780   20.0250    7.0280 C.ar   58  TYR58       0.0417
     64  CZ       104.8070   18.9370    6.2900 C.ar   58  TYR58       0.1957
     65  OH       103.8960   17.9780    5.9010 O.3    58  TYR58      -0.2866
     66  N         91.0130    4.9000   10.3220 N.3   144  PHE144     -0.1227
     67  CA        91.0440    6.3620   10.3880 C.3   144  PHE144      0.1736
     68  C         90.3220    7.0190    9.2100 C.2   144  PHE144      0.2595
     69  O         90.3690    6.5200    8.0830 O.2   144  PHE144     -0.2718
     70  CB        92.4900    6.8750   10.3790 C.3   144  PHE144      0.0547
     71  CG        93.3160    6.4360   11.5570 C.ar  144  PHE144     -0.0202
     72  CD1       94.3550    5.5260   11.3900 C.ar  144  PHE144     -0.0042
     73  CD2       93.0970    6.9740   12.8190 C.ar  144  PHE144     -0.0042
     74  CE1       95.1700    5.1610   12.4660 C.ar  144  PHE144     -0.0003
     75  CE2       93.9070    6.6140   13.9030 C.ar  144  PHE144     -0.0003
     76  CZ        94.9450    5.7060   13.7220 C.ar  144  PHE144     -0.0000
     77  N         89.6710    8.1470    9.4830 N.am  145  LEU145     -0.1966
     78  CA        88.9670    8.9180    8.4580 C.3   145  LEU145      0.1728
     79  C         89.6230   10.2920    8.4260 C.2   145  LEU145      0.2616
     80  O         90.5100   10.5740    9.2330 O.2   145  LEU145     -0.2715
     81  CB        87.4890    9.0630    8.8190 C.3   145  LEU145      0.0311
     82  CG        86.7070    7.7530    8.9230 C.3   145  LEU145      0.0022
     83  CD1       85.3280    8.0210    9.5030 C.3   145  LEU145      0.0001
     84  CD2       86.6030    7.1100    7.5390 C.3   145  LEU145      0.0001
     85  N         89.2050   11.1460    7.4960 N.am  146  ASN146     -0.1958
     86  CA        89.7820   12.4820    7.4230 C.3   146  ASN146      0.1819
     87  C         89.5210   13.2070    8.7360 C.2   146  ASN146      0.2622
     88  O         88.4730   13.0220    9.3560 O.2   146  ASN146     -0.2715
     89  CB        89.1710   13.2740    6.2660 C.3   146  ASN146      0.1195
     90  CG        89.5800   12.7340    4.9150 C.2   146  ASN146      0.2630
     91  OD1       88.7330   12.3960    4.0840 O.2   146  ASN146     -0.2716
     92  ND2       90.8860   12.6430    4.6860 N.am  146  ASN146     -0.0877
     93  N         90.4780   14.0270    9.1570 N.am  147  GLY147     -0.1940
     94  CA        90.3290   14.7650   10.3970 C.3   147  GLY147      0.2014
     95  C         90.8590   13.9800   11.5810 C.2   147  GLY147      0.2640
     96  O         90.8500   14.4630   12.7140 O.2   147  GLY147     -0.2714
     97  N         91.3370   12.7700   11.3130 N.am  148  SER148     -0.1935
     98  CA        91.8600   11.9020   12.3640 C.3   148  SER148      0.2055
     99  C         93.3190   12.1560   12.7310 C.2   148  SER148      0.2643
    100  O         93.7610   11.7190   13.8010 O.2   148  SER148     -0.2714
    101  CB        91.7130   10.4280   11.9620 C.3   148  SER148      0.2130
    102  OG        92.6570   10.0860   10.9560 O.3   148  SER148     -0.2179
    103  N         94.0890   12.8310   11.8740 N.am  149  CYS149     -0.1967
    104  CA        95.4780   13.0230   12.2720 C.3   149  CYS149      0.1712
    105  C         95.6440   13.7360   13.5970 C.2   149  CYS149      0.2296
    106  O         94.8630   14.6280   13.9460 O.2   149  CYS149     -0.2864
    107  CB        96.2770   13.7030   11.1720 C.3   149  CYS149      0.0983
    108  SG        96.4330   12.5710    9.7410 S.3   149  CYS149     -0.0798
    109  N         99.1260    9.8320   14.9040 N.3   167  HIS167     -0.1226
    110  CA        98.7790    9.5350   13.5150 C.3   167  HIS167      0.1752
    111  C         98.9980   10.6650   12.5190 C.2   167  HIS167      0.2596
    112  O         98.6180   11.8130   12.7650 O.2   167  HIS167     -0.2718
    113  CB        97.3240    9.0680   13.4230 C.3   167  HIS167      0.0759
    114  CG        96.9580    8.5400   12.0770 C.ar  167  HIS167      0.0818
    115  ND1       97.6730    7.5340   11.4590 N.ar  167  HIS167     -0.2268
    116  CD2       95.9850    8.8990   11.2060 C.ar  167  HIS167      0.1154
    117  CE1       97.1560    7.3000   10.2660 C.ar  167  HIS167      0.1986
    118  NE2       96.1310    8.1160   10.0890 N.ar  167  HIS167     -0.2212
    119  N         99.5880   10.3210   11.3770 N.am  168  HIS168     -0.1961
    120  CA        99.8750   11.3010   10.3370 C.3   168  HIS168      0.1787
    121  C         99.3080   10.9980    8.9490 C.2   168  HIS168      0.2620
    122  O         98.8860   11.9180    8.2470 O.2   168  HIS168     -0.2715
    123  CB       101.3940   11.4830   10.1690 C.3   168  HIS168      0.0785
    124  CG       102.0530   12.2500   11.2760 C.ar  168  HIS168      0.0821
    125  ND1      102.6280   13.4830   11.0800 N.ar  168  HIS168     -0.2267
    126  CD2      102.2500   11.9380   12.5780 C.ar  168  HIS168      0.1154
    127  CE1      103.1580   13.9030   12.2190 C.ar  168  HIS168      0.1986
    128  NE2      102.9430   12.9870   13.1400 N.ar  168  HIS168     -0.2212
    129  N         99.2770    9.7300    8.5430 N.am  169  MET169     -0.1963
    130  CA        98.8360    9.4400    7.1790 C.3   169  MET169      0.1736
    131  C         98.4730    7.9960    6.8520 C.2   169  MET169      0.2616
    132  O         98.7030    7.0770    7.6370 O.2   169  MET169     -0.2715
    133  CB        99.9500    9.8620    6.2150 C.3   169  MET169      0.0427
    134  CG       101.2710    9.1710    6.5570 C.3   169  MET169      0.0599
    135  SD       102.7500    9.7580    5.6800 S.3   169  MET169     -0.1393
    136  CE       103.3460    8.2500    4.9660 C.3   169  MET169      0.0692
    137  N         97.9240    7.8220    5.6520 N.am  170  GLU170     -0.1963
    138  CA        97.5410    6.5140    5.1480 C.3   170  GLU170      0.1733
    139  C         98.3150    6.2080    3.8700 C.2   170  GLU170      0.2616
    140  O         98.5460    7.0930    3.0380 O.2   170  GLU170     -0.2715
    141  CB        96.0450    6.4550    4.8510 C.3   170  GLU170      0.0429
    142  CG        95.6720    5.2290    4.0340 C.3   170  GLU170      0.1163
    143  CD        94.1970    5.1460    3.7200 C.2   170  GLU170      0.3649
    144  OE1       93.6000    6.1740    3.3410 O.co2 170  GLU170     -0.2457
    145  OE2       93.6410    4.0400    3.8430 O.co2 170  GLU170     -0.2457
    146  N         98.7110    4.9500    3.7220 N.am  171  LEU171     -0.1964
    147  CA        99.4570    4.5150    2.5530 C.3   171  LEU171      0.1713
    148  C         98.4970    3.9500    1.5190 C.2   171  LEU171      0.2458
    149  O         97.3610    3.6020    1.8460 O.2   171  LEU171     -0.2730
    150  CB       100.4810    3.4600    2.9570 C.3   171  LEU171      0.0310
    151  CG       101.5580    4.0000    3.8980 C.3   171  LEU171      0.0022
    152  CD1      102.3710    2.8580    4.4780 C.3   171  LEU171      0.0001
    153  CD2      102.4460    4.9750    3.1330 C.3   171  LEU171      0.0001
    154  N         98.9380    3.8590    0.2530 N.am  172  PRO172     -0.2727
    155  CA        98.1000    3.3300   -0.8310 C.3   172  PRO172      0.1402
    156  C         97.5260    1.9300   -0.5930 C.2   172  PRO172      0.2269
    157  O         96.4770    1.5840   -1.1410 O.2   172  PRO172     -0.2865
    158  CB        99.0240    3.3920   -2.0550 C.3   172  PRO172      0.0296
    159  CG       100.4190    3.4070   -1.4640 C.3   172  PRO172      0.0237
    160  CD       100.2480    4.2950   -0.2600 C.3   172  PRO172      0.0939
    161  N         98.3890    2.3820    7.7720 N.3   176  HIS176     -0.1241
    162  CA        98.7290    3.7020    8.2900 C.3   176  HIS176      0.1621
    163  C        100.1460    3.9130    8.8130 C.2   176  HIS176      0.2264
    164  O        100.8160    2.9680    9.2240 O.2   176  HIS176     -0.2867
    165  CB        97.7090    4.0750    9.3630 C.3   176  HIS176      0.0745
    166  CG        96.2890    3.9480    8.8960 C.ar  176  HIS176      0.0817
    167  ND1       95.5580    2.7930    9.0480 N.ar  176  HIS176     -0.2268
    168  CD2       95.4990    4.8120    8.2110 C.ar  176  HIS176      0.1154
    169  CE1       94.3730    2.9470    8.4760 C.ar  176  HIS176      0.1986
    170  NE2       94.3140    4.1590    7.9620 N.ar  176  HIS176     -0.2212
    171  N        106.1860   12.8510    5.8930 N.3   191  ASP191     -0.1225
    172  CA       104.8940   13.5170    5.8550 C.3   191  ASP191      0.1805
    173  C        104.6830   14.4540    4.6730 C.2   191  ASP191      0.2598
    174  O        104.6340   15.6760    4.8190 O.2   191  ASP191     -0.2718
    175  CB       104.6300   14.2520    7.1800 C.3   191  ASP191      0.1424
    176  CG       105.7400   15.2200    7.5630 C.2   191  ASP191      0.3668
    177  OD1      106.8500   15.1420    7.0010 O.co2 191  ASP191     -0.2456
    178  OD2      105.4940   16.0590    8.4540 O.co2 191  ASP191     -0.2456
    179  N        104.5530   13.8490    3.5000 N.am  192  ARG192     -0.1966
    180  CA       104.3130   14.5690    2.2560 C.3   192  ARG192      0.1729
    181  C        103.5880   13.5650    1.3630 C.2   192  ARG192      0.2616
    182  O        103.8310   12.3610    1.4570 O.2   192  ARG192     -0.2715
    183  CB       105.6390   15.0020    1.6180 C.3   192  ARG192      0.0348
    184  CG       106.4500   13.8530    1.0590 C.3   192  ARG192      0.0492
    185  CD       107.8060   14.2960    0.5270 C.3   192  ARG192      0.2205
    186  NE       108.6940   14.7570    1.5920 N.pl3 192  ARG192     -0.0865
    187  CZ       109.9990   14.5040    1.6380 C.cat 192  ARG192      0.5346
    188  NH1      110.5750   13.7880    0.6800 N.pl3 192  ARG192      0.1354
    189  NH2      110.7300   14.9670    2.6430 N.pl3 192  ARG192      0.1354
    190  N        102.6990   14.0480    0.5020 N.am  193  GLN193     -0.1963
    191  CA       101.9460   13.1520   -0.3650 C.3   193  GLN193      0.1733
    192  C        102.6720   12.7730   -1.6490 C.2   193  GLN193      0.2617
    193  O        102.2970   13.1810   -2.7460 O.2   193  GLN193     -0.2715
    194  CB       100.5710   13.7550   -0.6630 C.3   193  GLN193      0.0408
    195  CG        99.7390   13.9130    0.6100 C.3   193  GLN193      0.0908
    196  CD        98.3110   14.3640    0.3620 C.2   193  GLN193      0.2608
    197  OE1       97.4900   14.3800    1.2820 O.2   193  GLN193     -0.2717
    198  NE2       98.0060   14.7360   -0.8780 N.am  193  GLN193     -0.0878
    199  N        103.7210   11.9770   -1.4830 N.am  194  THR194     -0.1937
    200  CA       104.5320   11.4910   -2.5880 C.3   194  THR194      0.2028
    201  C        104.3760    9.9790   -2.6580 C.2   194  THR194      0.2642
    202  O        103.7390    9.3680   -1.7970 O.2   194  THR194     -0.2714
    203  CB       106.0140   11.8020   -2.3630 C.3   194  THR194      0.1808
    204  OG1      106.4180   11.2740   -1.0920 O.3   194  THR194     -0.2208
    205  CG2      106.2540   13.2990   -2.3880 C.3   194  THR194      0.0379
    206  N        104.9630    9.3760   -3.6830 N.am  195  ALA195     -0.1963
    207  CA       104.8880    7.9340   -3.8470 C.3   195  ALA195      0.1728
    208  C        105.6520    7.2380   -2.7290 C.2   195  ALA195      0.2616
    209  O        106.8710    7.3560   -2.6280 O.2   195  ALA195     -0.2715
    210  CB       105.4490    7.5260   -5.2080 C.3   195  ALA195      0.0334
    211  N        104.9160    6.5250   -1.8860 N.am  196  GLN196     -0.1977
    212  CA       105.5000    5.7910   -0.7730 C.3   196  GLN196      0.1601
    213  C        104.8120    4.4430   -0.6560 C.2   196  GLN196      0.2287
    214  O        103.5870    4.3500   -0.7360 O.2   196  GLN196     -0.2864
    215  CB       105.3390    6.5740    0.5330 C.3   196  GLN196      0.0394
    216  CG       106.2300    7.8030    0.6360 C.3   196  GLN196      0.0908
    217  CD       105.9830    8.5970    1.9070 C.2   196  GLN196      0.2608
    218  OE1      106.6430    8.3850    2.9260 O.2   196  GLN196     -0.2717
    219  NE2      105.0390    9.5260    1.8460 N.am  196  GLN196     -0.0878
@<TRIPOS>BOND
     1   210   207    1
     2   207   206    1
     3   207   208    1
     4   206   201   am
     5   193   192    2
     6   208   209    2
     7   208   211   am
     8   201   200    1
     9   201   202    2
    10   200   203    1
    11   200   199    1
    12   205   203    1
    13   203   204    1
    14   158   159    1
    15   158   155    1
    16   211   212    1
    17   192   199   am
    18   192   191    1
    19   159   160    1
    20   157   156    2
    21   198   196   am
    22   155   156    1
    23   155   154    1
    24   212   213    1
    25   212   215    1
    26   214   213    2
    27   194   191    1
    28   194   195    1
    29   191   190    1
    30   160   154    1
    31    48    49    2
    32    48    47    1
    33    46    47    1
    34   154   148   am
    35   196   195    1
    36   196   197    2
    37   190   181   am
    38   185   184    1
    39   185   186    1
    40   215   216    1
    41   216   217    1
    42   188   187    1
    43    47    50    1
    44   184   183    1
    45    50    51    1
    46   181   182    2
    47   181   180    1
    48   148   149    2
    49   148   147    1
    50   186   187    2
    51   183   180    1
    52   187   189    1
    53   219   217   am
    54   217   218    2
    55    51    52    1
    56   180   179    1
    57   147   150    1
    58   147   146    1
    59    52    53    1
    60   150   151    1
    61   140   139    2
    62   153   151    1
    63   144   143   ar
    64   179   173   am
    65   143   145   ar
    66   143   142    1
    67   146   139   am
    68   139   138    1
    69   151   152    1
    70   142   141    1
    71    91    90    2
    72   173   174    2
    73   173   172    1
    74    92    90   am
    75   141   138    1
    76    90    89    1
    77    42    41    1
    78    42    43    2
    79   136   135    1
    80    44    45    1
    81    44    41    1
    82     7     5    1
    83   138   137    1
    84    54    55    1
    85    41    40    1
    86   137   131   am
    87   135   134    1
    88   172   171    1
    89   172   175    1
    90     6     5    1
    91    65    64    1
    92    62    64   ar
    93    62    60   ar
    94     5     2    1
    95   133   134    1
    96   133   130    1
    97    89    86    1
    98    64    63   ar
    99    60    59   ar
   100    55    56    1
   101    55    58    1
   102   131   130    1
   103   131   132    2
   104    13    12    1
   105   177   176   ar
   106    63    61   ar
   107    59    61   ar
   108    59    58    1
   109   130   129    1
   110   175   176    1
   111    56    57    2
   112    86    85    1
   113    86    87    1
   114    85    79   am
   115     2     1    1
   116     2     3    1
   117    84    82    1
   118   176   178   ar
   119     4     3    2
   120    34    35    1
   121    34    31    1
   122   161   162    1
   123     3     8   am
   124    33    32    2
   125   170   168   ar
   126   170   169   ar
   127    69    68    2
   128   168   166   ar
   129   122   121    2
   130    12    14    1
   131    12     9    1
   132   162   163    1
   133   162   165    1
   134     8     9    1
   135    35    37   ar
   136    35    36   ar
   137    79    78    1
   138    79    80    2
   139    37    39   ar
   140    78    81    1
   141    78    77    1
   142   169   167   ar
   143   129   121   am
   144    31    32    1
   145    31    30    1
   146     9    10    1
   147    87    93   am
   148    87    88    2
   149   163   164    2
   150    81    82    1
   151   166   167   ar
   152   166   165    1
   153    82    83    1
   154    36    38   ar
   155   121   120    1
   156    39    38   ar
   157    93    94    1
   158    68    77   am
   159    68    67    1
   160   108   107    1
   161   118   117   ar
   162   118   116   ar
   163    10    15   am
   164    10    11    2
   165   123   120    1
   166   123   124    1
   167   117   115   ar
   168    66    67    1
   169   120   119    1
   170    70    67    1
   171    70    71    1
   172    94    95    1
   173    15    16    1
   174   102   101    1
   175   125   124   ar
   176   125   127   ar
   177   107   104    1
   178   116   114   ar
   179    18    17    2
   180   124   126   ar
   181    97    95   am
   182    97    98    1
   183   119   111   am
   184    72    71   ar
   185    72    74   ar
   186   115   114   ar
   187    71    73   ar
   188    95    96    2
   189    16    17    1
   190    16    19    1
   191   103   104    1
   192   103    99   am
   193    29    27    1
   194   101    98    1
   195    17    22   am
   196   114   113    1
   197    19    20    1
   198    19    21    1
   199   127   128   ar
   200   104   105    1
   201    98    99    1
   202    74    76   ar
   203   111   112    2
   204   111   110    1
   205   126   128   ar
   206    99   100    2
   207    27    26    1
   208    27    28    1
   209    73    75   ar
   210    26    23    1
   211    22    23    1
   212   113   110    1
   213    23    24    1
   214   110   109    1
   215   105   106    2
   216    76    75   ar
   217    24    25    2
