@<TRIPOS>MOLECULE
tmp/2ampB00.pdb
 190 186 0 0 0
SMALL
GASTEIGER

@<TRIPOS>ATOM
      1  N        -53.9210   12.3970  -35.5070 N.3    26  VAL26      -0.1245
      2  CA       -53.2640   12.3890  -34.2100 C.3    26  VAL26       0.1561
      3  C        -52.0330   13.2700  -34.3170 C.2    26  VAL26       0.2260
      4  O        -51.2120   13.0750  -35.2130 O.2    26  VAL26      -0.2867
      5  CB       -52.7830   10.9750  -33.8090 C.3    26  VAL26       0.0252
      6  CG1      -52.2650   10.9960  -32.3960 C.3    26  VAL26       0.0019
      7  CG2      -53.9020    9.9780  -33.9340 C.3    26  VAL26       0.0019
      8  N        -54.5730   22.2320  -39.4310 N.3    41  HIS41      -0.1241
      9  CA       -54.8990   21.1010  -40.3160 C.3    41  HIS41       0.1621
     10  C        -55.3280   19.7870  -39.6510 C.2    41  HIS41       0.2264
     11  O        -55.6550   18.8140  -40.3380 O.2    41  HIS41      -0.2867
     12  CB       -53.7510   20.8260  -41.3150 C.3    41  HIS41       0.0745
     13  CG       -52.5240   20.2140  -40.7070 C.ar   41  HIS41       0.0817
     14  ND1      -51.2820   20.8080  -40.7850 N.ar   41  HIS41      -0.2268
     15  CD2      -52.3440   19.0560  -40.0260 C.ar   41  HIS41       0.1154
     16  CE1      -50.3930   20.0450  -40.1760 C.ar   41  HIS41       0.1986
     17  NE2      -51.0130   18.9770  -39.7070 N.ar   41  HIS41      -0.2212
     18  N        -55.8370   15.7020  -45.4750 N.3    47  THR47      -0.1203
     19  CA       -54.6250   16.5230  -45.5540 C.3    47  THR47       0.1994
     20  C        -53.8180   16.2090  -46.7980 C.2    47  THR47       0.2619
     21  O        -52.9300   16.9690  -47.1880 O.2    47  THR47      -0.2717
     22  CB       -53.6930   16.2710  -44.3580 C.3    47  THR47       0.1784
     23  OG1      -53.3150   14.8890  -44.3410 O.3    47  THR47      -0.2211
     24  CG2      -54.3810   16.6290  -43.0550 C.3    47  THR47       0.0376
     25  N        -54.1230   15.0720  -47.4080 N.am   48  THR48      -0.1938
     26  CA       -53.4140   14.6320  -48.5940 C.3    48  THR48       0.2028
     27  C        -53.9830   15.2670  -49.8500 C.2    48  THR48       0.2642
     28  O        -53.8350   14.7300  -50.9430 O.2    48  THR48      -0.2714
     29  CB       -53.4870   13.1100  -48.7180 C.3    48  THR48       0.1808
     30  OG1      -54.8450   12.7120  -48.9260 O.3    48  THR48      -0.2208
     31  CG2      -52.9820   12.4580  -47.4420 C.3    48  THR48       0.0379
     32  N        -54.6320   16.4150  -49.6830 N.am   49  ARG49      -0.1977
     33  CA       -55.2390   17.1470  -50.7890 C.3    49  ARG49       0.1597
     34  C        -55.5930   18.5670  -50.3990 C.2    49  ARG49       0.2287
     35  O        -56.0670   18.8170  -49.2870 O.2    49  ARG49      -0.2864
     36  CB       -56.4890   16.4310  -51.2820 C.3    49  ARG49       0.0334
     37  CG       -56.1730   15.4790  -52.3970 C.3    49  ARG49       0.0492
     38  CD       -56.9180   14.1780  -52.2760 C.3    49  ARG49       0.2205
     39  NE       -58.1680   14.2020  -53.0170 N.pl3  49  ARG49      -0.0865
     40  CZ       -58.7100   13.1250  -53.5670 C.cat  49  ARG49       0.5346
     41  NH1      -58.1000   11.9580  -53.4510 N.pl3  49  ARG49       0.1354
     42  NH2      -59.8570   13.2110  -54.2230 N.pl3  49  ARG49       0.1354
     43  N        -56.5200   21.9390  -49.1220 N.3    51  ILE51      -0.1245
     44  CA       -57.4720   22.1290  -48.0430 C.3    51  ILE51       0.1561
     45  C        -58.3490   23.3550  -48.1510 C.2    51  ILE51       0.2260
     46  O        -57.9050   24.4370  -48.5290 O.2    51  ILE51      -0.2867
     47  CB       -56.7610   22.2380  -46.6760 C.3    51  ILE51       0.0252
     48  CG1      -55.9670   20.9770  -46.3850 C.3    51  ILE51       0.0019
     49  CG2      -57.7860   22.4790  -45.5590 C.3    51  ILE51       0.0019
     50  CD1      -55.1010   21.1270  -45.1700 C.3    51  ILE51       0.0001
     51  N        -38.1820   16.3000  -39.1480 N.3   139  PHE139     -0.1227
     52  CA       -39.5430   15.9050  -38.8340 C.3   139  PHE139      0.1736
     53  C        -40.0510   14.7790  -39.7130 C.2   139  PHE139      0.2595
     54  O        -39.5300   14.5560  -40.8040 O.2   139  PHE139     -0.2718
     55  CB       -40.4620   17.1250  -38.9530 C.3   139  PHE139      0.0547
     56  CG       -40.2200   18.1580  -37.8920 C.ar  139  PHE139     -0.0202
     57  CD1      -39.7550   19.4250  -38.2260 C.ar  139  PHE139     -0.0042
     58  CD2      -40.4250   17.8510  -36.5440 C.ar  139  PHE139     -0.0042
     59  CE1      -39.5030   20.3770  -37.2390 C.ar  139  PHE139     -0.0003
     60  CE2      -40.1740   18.7960  -35.5500 C.ar  139  PHE139     -0.0003
     61  CZ       -39.7110   20.0580  -35.9030 C.ar  139  PHE139     -0.0000
     62  N        -41.0570   14.0560  -39.2260 N.am  140  ILE140     -0.1966
     63  CA       -41.6470   12.9640  -39.9910 C.3   140  ILE140      0.1727
     64  C        -43.0850   12.7380  -39.5490 C.2   140  ILE140      0.2616
     65  O        -43.6510   13.5480  -38.8220 O.2   140  ILE140     -0.2715
     66  CB       -40.8610   11.6450  -39.8090 C.3   140  ILE140      0.0290
     67  CG1      -41.1510   11.0550  -38.4360 C.3   140  ILE140      0.0022
     68  CG2      -39.3710   11.8890  -39.9740 C.3   140  ILE140      0.0023
     69  CD1      -40.1320   10.0550  -37.9990 C.3   140  ILE140      0.0001
     70  N        -43.6690   11.6300  -39.9890 N.am  141  ALA141     -0.1963
     71  CA       -45.0520   11.3020  -39.6620 C.3   141  ALA141      0.1728
     72  C        -45.3780   11.3770  -38.1770 C.2   141  ALA141      0.2616
     73  O        -44.9110   10.5680  -37.3870 O.2   141  ALA141     -0.2715
     74  CB       -45.3900    9.9170  -40.1840 C.3   141  ALA141      0.0334
     75  N        -46.1170   12.4310  -37.8780 N.am  142  GLY142     -0.1955
     76  CA       -46.5910   12.5120  -36.5150 C.3   142  GLY142      0.1869
     77  C        -45.9200   13.5060  -35.5980 C.2   142  GLY142      0.2309
     78  O        -46.2350   13.5390  -34.4050 O.2   142  GLY142     -0.2863
     79  N        -46.1040   16.6980  -36.2990 N.3   144  CYS144     -0.1235
     80  CA       -46.7540   17.9760  -36.4800 C.3   144  CYS144      0.1677
     81  C        -47.2090   18.5100  -35.1500 C.2   144  CYS144      0.2270
     82  O        -47.7700   17.7670  -34.3410 O.2   144  CYS144     -0.2867
     83  CB       -47.9730   17.8220  -37.3540 C.3   144  CYS144      0.0956
     84  SG       -47.5050   17.4280  -39.0220 S.3   144  CYS144     -0.0801
     85  N        -44.5000   23.0920  -35.5600 N.3   162  HIS162     -0.1226
     86  CA       -44.3180   22.4580  -36.8560 C.3   162  HIS162      0.1752
     87  C        -45.6160   22.0650  -37.5810 C.2   162  HIS162      0.2596
     88  O        -46.5120   21.4550  -36.9890 O.2   162  HIS162     -0.2718
     89  CB       -43.4210   21.2310  -36.6840 C.3   162  HIS162      0.0759
     90  CG       -43.1630   20.4970  -37.9610 C.ar  162  HIS162      0.0818
     91  ND1      -42.4650   21.0590  -39.0070 N.ar  162  HIS162     -0.2268
     92  CD2      -43.5810   19.2900  -38.3810 C.ar  162  HIS162      0.1154
     93  CE1      -42.4720   20.2230  -40.0260 C.ar  162  HIS162      0.1986
     94  NE2      -43.1410   19.1470  -39.6740 N.ar  162  HIS162     -0.2212
     95  N        -45.6840   22.3880  -38.8760 N.am  163  HIS163     -0.1961
     96  CA       -46.8640   22.1090  -39.6920 C.3   163  HIS163      0.1787
     97  C        -46.7100   21.0980  -40.8110 C.2   163  HIS163      0.2620
     98  O        -47.3790   20.0650  -40.8260 O.2   163  HIS163     -0.2715
     99  CB       -47.3820   23.4000  -40.3250 C.3   163  HIS163      0.0785
    100  CG       -48.0450   24.3310  -39.3640 C.ar  163  HIS163      0.0821
    101  ND1      -49.4100   24.3510  -39.1720 N.ar  163  HIS163     -0.2267
    102  CD2      -47.5360   25.3030  -38.5680 C.ar  163  HIS163      0.1154
    103  CE1      -49.7120   25.2990  -38.3040 C.ar  163  HIS163      0.1986
    104  NE2      -48.5920   25.8920  -37.9220 N.ar  163  HIS163     -0.2212
    105  N        -45.8420   21.4090  -41.7640 N.am  164  LEU164     -0.1963
    106  CA       -45.6640   20.5470  -42.9270 C.3   164  LEU164      0.1728
    107  C        -44.2430   20.4830  -43.4580 C.2   164  LEU164      0.2616
    108  O        -43.3380   21.1110  -42.9230 O.2   164  LEU164     -0.2715
    109  CB       -46.5780   21.0510  -44.0420 C.3   164  LEU164      0.0311
    110  CG       -46.3060   22.5010  -44.4540 C.3   164  LEU164      0.0022
    111  CD1      -45.2640   22.5480  -45.5450 C.3   164  LEU164      0.0001
    112  CD2      -47.5910   23.1290  -44.9360 C.3   164  LEU164      0.0001
    113  N        -44.0570   19.7140  -44.5230 N.am  165  GLU165     -0.1963
    114  CA       -42.7470   19.6020  -45.1490 C.3   165  GLU165      0.1733
    115  C        -42.8310   19.9060  -46.6500 C.2   165  GLU165      0.2616
    116  O        -43.7470   19.4440  -47.3350 O.2   165  GLU165     -0.2715
    117  CB       -42.1500   18.2080  -44.9500 C.3   165  GLU165      0.0429
    118  CG       -40.8180   18.0480  -45.6720 C.3   165  GLU165      0.1163
    119  CD       -40.1330   16.7500  -45.3600 C.2   165  GLU165      0.3649
    120  OE1      -39.7740   16.5360  -44.1910 O.co2 165  GLU165     -0.2457
    121  OE2      -39.9500   15.9360  -46.2760 O.co2 165  GLU165     -0.2457
    122  N        -41.8730   20.6830  -47.1550 N.am  166  LEU166     -0.1963
    123  CA       -41.8530   21.0330  -48.5690 C.3   166  LEU166      0.1728
    124  C        -41.5350   19.8230  -49.4160 C.2   166  LEU166      0.2616
    125  O        -41.1830   18.7540  -48.9020 O.2   166  LEU166     -0.2715
    126  CB       -40.8100   22.1080  -48.8430 C.3   166  LEU166      0.0311
    127  CG       -41.0570   23.4770  -48.2210 C.3   166  LEU166      0.0022
    128  CD1      -40.0440   24.4300  -48.7840 C.3   166  LEU166      0.0001
    129  CD2      -42.4500   23.9710  -48.5390 C.3   166  LEU166      0.0001
    130  N        -41.6660   19.9840  -50.7240 N.am  167  GLY167     -0.1955
    131  CA       -41.3540   18.8810  -51.6080 C.3   167  GLY167      0.1869
    132  C        -39.8660   18.5700  -51.5510 C.2   167  GLY167      0.2309
    133  O        -39.4560   17.4130  -51.6560 O.2   167  GLY167     -0.2863
    134  N        -38.5130   21.9350  -43.6980 N.3   171  HIS171     -0.1241
    135  CA       -39.6590   21.8690  -42.8050 C.3   171  HIS171      0.1621
    136  C        -40.1940   23.2430  -42.5030 C.2   171  HIS171      0.2264
    137  O        -39.4440   24.1670  -42.1990 O.2   171  HIS171     -0.2867
    138  CB       -39.2790   21.1460  -41.5210 C.3   171  HIS171      0.0745
    139  CG       -38.8500   19.7330  -41.7520 C.ar  171  HIS171      0.0817
    140  ND1      -37.5860   19.2760  -41.4450 N.ar  171  HIS171     -0.2268
    141  CD2      -39.4940   18.6940  -42.3350 C.ar  171  HIS171      0.1154
    142  CE1      -37.4710   18.0190  -41.8330 C.ar  171  HIS171      0.1986
    143  NE2      -38.6140   17.6430  -42.3760 N.ar  171  HIS171     -0.2212
    144  N        -50.5930   26.0970  -45.5470 N.3   186  ASP186     -0.1225
    145  CA       -50.8550   24.7370  -45.0620 C.3   186  ASP186      0.1805
    146  C        -51.6350   23.9260  -46.0880 C.2   186  ASP186      0.2598
    147  O        -52.7720   23.5220  -45.8530 O.2   186  ASP186     -0.2718
    148  CB       -51.6150   24.7940  -43.7210 C.3   186  ASP186      0.1424
    149  CG       -52.6320   25.9440  -43.6490 C.2   186  ASP186      0.3668
    150  OD1      -53.0480   26.2870  -42.5160 O.co2 186  ASP186     -0.2456
    151  OD2      -53.0220   26.4970  -44.7060 O.co2 186  ASP186     -0.2456
    152  N        -50.9850   23.6770  -47.2170 N.am  187  GLN187     -0.1966
    153  CA       -51.5840   22.9630  -48.3360 C.3   187  GLN187      0.1718
    154  C        -50.6180   21.9780  -48.9830 C.2   187  GLN187      0.2458
    155  O        -49.4830   22.3350  -49.3080 O.2   187  GLN187     -0.2730
    156  CB       -52.0000   23.9720  -49.4200 C.3   187  GLN187      0.0407
    157  CG       -52.9280   25.0870  -48.9770 C.3   187  GLN187      0.0908
    158  CD       -54.2950   24.5600  -48.6700 C.2   187  GLN187      0.2608
    159  OE1      -54.6570   23.4850  -49.1280 O.2   187  GLN187     -0.2717
    160  NE2      -55.0730   25.3160  -47.9030 N.am  187  GLN187     -0.0878
    161  N        -51.0590   20.7330  -49.1920 N.am  188  PRO188     -0.2716
    162  CA       -50.2030   19.7250  -49.8220 C.3   188  PRO188      0.1536
    163  C        -49.9760   20.0830  -51.3090 C.2   188  PRO188      0.2599
    164  O        -50.2640   19.2920  -52.2190 O.2   188  PRO188     -0.2715
    165  CB       -50.9990   18.4350  -49.6270 C.3   188  PRO188      0.0310
    166  CG       -52.3930   18.8990  -49.6410 C.3   188  PRO188      0.0237
    167  CD       -52.3460   20.1470  -48.7930 C.3   188  PRO188      0.0939
    168  N        -49.4680   21.2970  -51.5260 N.am  189  SER189     -0.1936
    169  CA       -49.1850   21.8360  -52.8550 C.3   189  SER189      0.2055
    170  C        -47.6760   21.9760  -53.0530 C.2   189  SER189      0.2643
    171  O        -46.9470   22.1630  -52.0810 O.2   189  SER189     -0.2714
    172  CB       -49.8300   23.2140  -53.0130 C.3   189  SER189      0.2130
    173  OG       -49.2670   24.1700  -52.1210 O.3   189  SER189     -0.2179
    174  N        -47.2550   21.9470  -54.2970 N.am  190  MET190     -0.1962
    175  CA       -45.8900   22.1490  -54.6430 C.3   190  MET190      0.1737
    176  C        -45.3890   23.5640  -54.5060 C.2   190  MET190      0.2616
    177  O        -45.3560   24.2890  -55.4310 O.2   190  MET190     -0.2715
    178  CB       -45.6400   21.6080  -56.0370 C.3   190  MET190      0.0436
    179  CG       -44.1880   21.4120  -56.4580 C.3   190  MET190      0.0709
    180  SD       -43.3190   22.8350  -57.1340 S.3   190  MET190     -0.0821
    181  CE       -41.0320   22.8100  -56.4520 C.3   190  MET190      0.0000
    182  N        -44.9390   23.9210  -53.3270 N.am  191  GLN191     -0.1977
    183  CA       -44.5480   25.2960  -53.0760 C.3   191  GLN191      0.1601
    184  C        -43.0270   25.3610  -53.0460 C.2   191  GLN191      0.2287
    185  O        -42.3720   24.4620  -52.5250 O.2   191  GLN191     -0.2864
    186  CB       -45.1360   25.7210  -51.7390 C.3   191  GLN191      0.0394
    187  CG       -46.5920   25.2820  -51.5680 C.3   191  GLN191      0.0908
    188  CD       -47.1070   25.4850  -50.1570 C.2   191  GLN191      0.2608
    189  OE1      -46.9000   26.5430  -49.5520 O.2   191  GLN191     -0.2717
    190  NE2      -47.7910   24.4740  -49.6230 N.am  191  GLN191     -0.0878
@<TRIPOS>BOND
     1   180   179    1
     2   179   178    1
     3   178   175    1
     4   177   176    2
     5   175   176    1
     6   175   174    1
     7   176   182   am
     8   174   170   am
     9    42    40    1
    10    40    41    1
    11    40    39    2
    12   182   183    1
    13   183   184    1
    14   183   186    1
    15   170   169    1
    16   170   171    2
    17   184   185    2
    18    39    38    1
    19   172   169    1
    20   172   173    1
    21   169   168    1
    22    37    38    1
    23    37    36    1
    24   164   163    2
    25   186   187    1
    26   133   132    2
    27   131   132    1
    28   131   130    1
    29   187   188    1
    30   168   163   am
    31   163   162    1
    32    36    33    1
    33    28    27    2
    34    33    34    1
    35    33    32    1
    36   130   124   am
    37    34    35    2
    38   188   190   am
    39   188   189    2
    40    27    32   am
    41    27    26    1
    42   162   165    1
    43   162   161    1
    44   166   165    1
    45   166   167    1
    46   156   157    1
    47   156   153    1
    48   124   125    2
    49   124   123    1
    50   155   154    2
    51   161   154   am
    52   161   167    1
    53   159   158    2
    54    43    44    1
    55   154   153    1
    56   157   158    1
    57    30    29    1
    58   126   123    1
    59   126   127    1
    60   128   127    1
    61    29    26    1
    62    29    31    1
    63   158   160   am
    64    26    25    1
    65   123   122    1
    66   129   127    1
    67    46    45    2
    68   153   152    1
    69    45    44    1
    70    44    47    1
    71    25    20   am
    72   116   115    2
    73   152   146   am
    74    21    20    2
    75   122   115   am
    76    20    19    1
    77    47    48    1
    78    47    49    1
    79   115   114    1
    80    48    50    1
    81   121   119   ar
    82   146   147    2
    83   146   145    1
    84   118   119    1
    85   118   117    1
    86    19    18    1
    87    19    22    1
    88   144   145    1
    89   111   110    1
    90   119   120   ar
    91   114   117    1
    92   114   113    1
    93   145   148    1
    94   112   110    1
    95   151   149   ar
    96   113   107   am
    97   110   109    1
    98    22    23    1
    99    22    24    1
   100   109   106    1
   101   148   149    1
   102   134   135    1
   103   149   150   ar
   104   107   106    1
   105   107   108    2
   106   106   105    1
   107   135   136    1
   108   135   138    1
   109   136   137    2
   110   143   141   ar
   111   143   142   ar
   112   141   139   ar
   113   142   140   ar
   114   105    97   am
   115   139   138    1
   116   139   140   ar
   117    12    13    1
   118    12     9    1
   119    98    97    2
   120    97    96    1
   121    54    53    2
   122    14    13   ar
   123    14    16   ar
   124    13    15   ar
   125    11    10    2
   126    99    96    1
   127    99   100    1
   128     9    10    1
   129     9     8    1
   130    74    71    1
   131    16    17   ar
   132    93    94   ar
   133    93    91   ar
   134    15    17   ar
   135    63    66    1
   136    63    64    1
   137    63    62    1
   138    70    71    1
   139    70    64   am
   140    68    66    1
   141    66    67    1
   142    53    62   am
   143    53    52    1
   144    96    95    1
   145    94    92   ar
   146    71    72    1
   147    64    65    2
   148   100   101   ar
   149   100   102   ar
   150   101   103   ar
   151    51    52    1
   152    84    83    1
   153    91    90   ar
   154    55    52    1
   155    55    56    1
   156    95    87   am
   157   102   104   ar
   158    67    69    1
   159    92    90   ar
   160   103   104   ar
   161    57    56   ar
   162    57    59   ar
   163    72    75   am
   164    72    73    2
   165    90    89    1
   166    56    58   ar
   167    75    76    1
   168    87    88    2
   169    87    86    1
   170    83    80    1
   171    59    61   ar
   172    86    89    1
   173    86    85    1
   174    58    60   ar
   175    76    77    1
   176    80    79    1
   177    80    81    1
   178    61    60   ar
   179    77    78    2
   180     1     2    1
   181     4     3    2
   182    81    82    2
   183     3     2    1
   184     2     5    1
   185     7     5    1
   186     5     6    1
