@<TRIPOS>MOLECULE
tmp/2amtF00.pdb
 74 71 0 0 0
SMALL
GASTEIGER

@<TRIPOS>ATOM
      1  N         -8.6760   34.5330   16.0640 N.3   100  ALA100     -0.1231
      2  CA        -8.6790   33.3750   15.1730 C.3   100  ALA100      0.1694
      3  C         -7.3370   32.6590   15.2150 C.2   100  ALA100      0.2591
      4  O         -6.2830   33.2980   15.1570 O.2   100  ALA100     -0.2718
      5  CB        -8.9930   33.8010   13.7480 C.3   100  ALA100      0.0304
      6  N         -7.3850   31.3330   15.3200 N.am  101  GLN101     -0.1979
      7  CA        -6.1850   30.5070   15.2330 C.3   101  GLN101      0.1601
      8  C         -5.6490   30.5510   13.8050 C.2   101  GLN101      0.2287
      9  O         -4.4420   30.6590   13.5870 O.2   101  GLN101     -0.2864
     10  CB        -6.4920   29.0620   15.6480 C.3   101  GLN101      0.0394
     11  CG        -5.2610   28.2070   15.9500 C.3   101  GLN101      0.0908
     12  CD        -4.5430   28.6210   17.2270 C.2   101  GLN101      0.2608
     13  OE1       -5.1650   29.0700   18.1910 O.2   101  GLN101     -0.2717
     14  NE2       -3.2260   28.4600   17.2400 N.am  101  GLN101     -0.0878
     15  N         -7.2350   31.5340    9.4200 N.3   103  PRO103     -0.2102
     16  CA        -5.9330   31.7170    8.7750 C.3   103  PRO103      0.1504
     17  C         -5.1380   32.9020    9.3230 C.2   103  PRO103      0.2576
     18  O         -5.6220   33.6290   10.1970 O.2   103  PRO103     -0.2718
     19  CB        -6.3070   31.9670    7.3130 C.3   103  PRO103      0.0282
     20  CG        -7.6380   32.6140    7.3780 C.3   103  PRO103      0.0208
     21  CD        -8.3390   32.0270    8.5740 C.3   103  PRO103      0.0893
     22  N         -3.9210   33.0700    8.8080 N.am  104  LYS104     -0.1966
     23  CA        -3.0910   34.2290    9.1110 C.3   104  LYS104      0.1728
     24  C         -3.7580   35.4860    8.5580 C.2   104  LYS104      0.2616
     25  O         -4.0720   35.5630    7.3700 O.2   104  LYS104     -0.2715
     26  CB        -1.6930   34.0540    8.5100 C.3   104  LYS104      0.0311
     27  CG        -0.6300   34.9890    9.0830 C.3   104  LYS104      0.0038
     28  CD        -0.0650   34.4590   10.3940 C.3   104  LYS104      0.0206
     29  CE         1.1070   35.3010   10.8750 C.3   104  LYS104      0.1093
     30  NZ         1.7140   34.7280   12.1120 N.3   104  LYS104     -0.1314
     31  N         -3.9770   36.4610    9.4320 N.am  105  MET105     -0.1963
     32  CA        -4.7080   37.6770    9.0830 C.3   105  MET105      0.1736
     33  C         -3.7820   38.8160    8.6820 C.2   105  MET105      0.2616
     34  O         -4.1790   39.7020    7.9190 O.2   105  MET105     -0.2715
     35  CB        -5.5780   38.1310   10.2580 C.3   105  MET105      0.0427
     36  CG        -6.5890   37.1030   10.7400 C.3   105  MET105      0.0599
     37  SD        -7.9190   36.8470    9.5590 S.3   105  MET105     -0.1393
     38  CE        -8.8050   35.4990   10.3360 C.3   105  MET105      0.0692
     39  N         -2.5510   38.7770    9.1950 N.am  106  LEU106     -0.1977
     40  CA        -1.6260   39.9170    9.1410 C.3   106  LEU106      0.1596
     41  C         -1.2940   40.4360    7.7330 C.2   106  LEU106      0.2287
     42  O         -1.2220   41.6510    7.5380 O.2   106  LEU106     -0.2864
     43  CB        -0.3390   39.6130    9.9240 C.3   106  LEU106      0.0297
     44  CG         0.6670   40.7490   10.1440 C.3   106  LEU106      0.0022
     45  CD1        0.1440   41.7850   11.1380 C.3   106  LEU106      0.0001
     46  CD2        2.0000   40.1860   10.6120 C.3   106  LEU106      0.0001
     47  N         -4.7550   40.8100   15.0600 N.3   131  ALA131     -0.1231
     48  CA        -5.2170   39.4360   15.1960 C.3   131  ALA131      0.1694
     49  C         -4.4800   38.7210   16.3190 C.2   131  ALA131      0.2593
     50  O         -3.3030   38.9830   16.5660 O.2   131  ALA131     -0.2718
     51  CB        -5.0510   38.6870   13.8910 C.3   131  ALA131      0.0304
     52  N         -5.1900   37.8270   17.0020 N.am  132  THR132     -0.1939
     53  CA        -4.6070   36.9890   18.0380 C.3   132  THR132      0.2028
     54  C         -5.1330   35.5620   17.8910 C.2   132  THR132      0.2642
     55  O         -6.2800   35.3520   17.4870 O.2   132  THR132     -0.2714
     56  CB        -4.9550   37.5040   19.4590 C.3   132  THR132      0.1808
     57  OG1       -4.9880   38.9380   19.4670 O.3   132  THR132     -0.2208
     58  CG2       -3.9310   37.0180   20.4830 C.3   132  THR132      0.0379
     59  N         -4.2840   34.5880   18.2020 N.am  133  THR133     -0.1950
     60  CA        -4.7320   33.2140   18.3760 C.3   133  THR133      0.1897
     61  C         -5.1100   33.0500   19.8390 C.2   133  THR133      0.2313
     62  O         -4.8250   33.9230   20.6640 O.2   133  THR133     -0.2863
     63  CB        -3.6350   32.1740   18.0280 C.3   133  THR133      0.1794
     64  OG1       -2.6640   32.1210   19.0800 O.3   133  THR133     -0.2208
     65  CG2       -2.9470   32.5100   16.7090 C.3   133  THR133      0.0378
     66  N         -3.9880   30.2620   21.2420 N.3   135  GLU135     -0.1245
     67  CA        -3.0020   29.1990   21.4590 C.3   135  GLU135      0.1567
     68  C         -3.6500   27.8140   21.5000 C.2   135  GLU135      0.2260
     69  O         -3.4470   27.0490   22.4460 O.2   135  GLU135     -0.2867
     70  CB        -2.1750   29.4560   22.7280 C.3   135  GLU135      0.0388
     71  CG        -1.4840   30.8190   22.7840 C.3   135  GLU135      0.1160
     72  CD        -0.3840   30.9930   21.7460 C.2   135  GLU135      0.3649
     73  OE1       -0.2070   32.1320   21.2590 O.co2 135  GLU135     -0.2457
     74  OE2        0.3000   29.9970   21.4150 O.co2 135  GLU135     -0.2457
@<TRIPOS>BOND
     1    19    20    1
     2    19    16    1
     3    25    24    2
     4    20    21    1
     5    42    41    2
     6    41    40    1
     7    34    33    2
     8    26    27    1
     9    26    23    1
    10    24    23    1
    11    24    31   am
    12    21    15    1
    13    33    32    1
    14    33    39   am
    15    16    17    1
    16    16    15    1
    17    22    23    1
    18    22    17   am
    19    32    31    1
    20    32    35    1
    21    27    28    1
    22    40    39    1
    23    40    43    1
    24    17    18    2
    25    37    38    1
    26    37    36    1
    27    43    44    1
    28    44    46    1
    29    44    45    1
    30    35    36    1
    31    28    29    1
    32    29    30    1
    33     9     8    2
    34     5     2    1
    35     8     7    1
    36    51    48    1
    37    47    48    1
    38     4     3    2
    39     2     3    1
    40     2     1    1
    41    48    49    1
    42     3     6   am
    43     7     6    1
    44     7    10    1
    45    10    11    1
    46    11    12    1
    47    49    50    2
    48    49    52   am
    49    65    63    1
    50    52    53    1
    51    12    14   am
    52    12    13    2
    53    55    54    2
    54    54    53    1
    55    54    59   am
    56    63    60    1
    57    63    64    1
    58    53    56    1
    59    59    60    1
    60    60    61    1
    61    56    57    1
    62    56    58    1
    63    61    62    2
    64    66    67    1
    65    73    72   ar
    66    74    72   ar
    67    67    68    1
    68    67    70    1
    69    68    69    2
    70    72    71    1
    71    70    71    1
