@<TRIPOS>MOLECULE
tmp/2amtF01.pdb
 147 145 0 0 0
SMALL
GASTEIGER

@<TRIPOS>ATOM
      1  N        -18.4580   39.8150   18.0940 N.3     8  ASP8       -0.1225
      2  CA       -19.1280   38.9000   17.1850 C.3     8  ASP8        0.1805
      3  C        -18.4190   37.5570   17.0970 C.2     8  ASP8        0.2598
      4  O        -17.2040   37.4700   17.2800 O.2     8  ASP8       -0.2718
      5  CB       -19.2600   39.5190   15.7930 C.3     8  ASP8        0.1424
      6  CG       -20.2930   38.8110   14.9360 C.2     8  ASP8        0.3668
      7  OD1      -21.1870   38.1410   15.4950 O.co2   8  ASP8       -0.2456
      8  OD2      -20.2130   38.9210   13.6960 O.co2   8  ASP8       -0.2456
      9  N        -19.2030   36.5140   16.8340 N.am    9  VAL9       -0.1966
     10  CA       -18.6920   35.1680   16.6040 C.3     9  VAL9        0.1727
     11  C        -19.4280   34.5470   15.4180 C.2     9  VAL9        0.2616
     12  O        -20.6580   34.6080   15.3350 O.2     9  VAL9       -0.2715
     13  CB       -18.8660   34.2590   17.8500 C.3     9  VAL9        0.0290
     14  CG1      -18.5720   32.8040   17.5070 C.3     9  VAL9        0.0023
     15  CG2      -17.9710   34.7170   18.9900 C.3     9  VAL9        0.0023
     16  N        -18.6630   33.9680   14.4970 N.am   10  HIS10      -0.1973
     17  CA       -19.2230   33.1450   13.4370 C.3    10  HIS10       0.1656
     18  C        -18.5200   31.7970   13.3950 C.2    10  HIS10       0.2291
     19  O        -17.2960   31.7190   13.5160 O.2    10  HIS10      -0.2864
     20  CB       -19.1470   33.8500   12.0810 C.3    10  HIS10       0.0771
     21  CG       -20.1530   34.9470   11.9150 C.ar   10  HIS10       0.0820
     22  ND1      -21.5120   34.7250   11.9830 N.ar   10  HIS10      -0.2267
     23  CD2      -20.0010   36.2710   11.6790 C.ar   10  HIS10       0.1154
     24  CE1      -22.1520   35.8660   11.8030 C.ar   10  HIS10       0.1986
     25  NE2      -21.2590   36.8200   11.6180 N.ar   10  HIS10      -0.2212
     26  N        -23.5560   32.1510    8.1380 N.3    33  ALA33      -0.1231
     27  CA       -24.2960   33.3430    8.5580 C.3    33  ALA33       0.1694
     28  C        -25.4610   33.6370    7.6170 C.2    33  ALA33       0.2592
     29  O        -25.4070   33.3190    6.4250 O.2    33  ALA33      -0.2718
     30  CB       -23.3700   34.5560    8.6360 C.3    33  ALA33       0.0304
     31  N        -26.5120   34.2480    8.1620 N.am   34  HIS34      -0.1962
     32  CA       -27.5840   34.8220    7.3510 C.3    34  HIS34       0.1787
     33  C        -27.0600   36.0980    6.6760 C.2    34  HIS34       0.2620
     34  O        -27.8070   36.8420    6.0330 O.2    34  HIS34      -0.2715
     35  CB       -28.8180   35.1150    8.2110 C.3    34  HIS34       0.0785
     36  CG       -29.4430   33.8930    8.8130 C.ar   34  HIS34       0.0821
     37  ND1      -30.5850   33.3120    8.3020 N.ar   34  HIS34      -0.2267
     38  CD2      -29.0850   33.1400    9.8810 C.ar   34  HIS34       0.1154
     39  CE1      -30.9040   32.2570    9.0310 C.ar   34  HIS34       0.1986
     40  NE2      -30.0090   32.1300    9.9940 N.ar   34  HIS34      -0.2212
     41  N        -25.7580   36.3260    6.8430 N.am   35  SER35      -0.1950
     42  CA       -25.0220   37.4080    6.2030 C.3    35  SER35       0.1924
     43  C        -23.8130   36.8080    5.4740 C.2    35  SER35       0.2314
     44  O        -23.7510   35.5900    5.2770 O.2    35  SER35      -0.2863
     45  CB       -24.5740   38.4180    7.2600 C.3    35  SER35       0.2116
     46  OG       -23.7510   37.7980    8.2340 O.3    35  SER35      -0.2180
     47  N        -18.8510   43.1460   11.5560 N.3    42  HIS42      -0.1241
     48  CA       -20.0290   43.0580   12.4230 C.3    42  HIS42       0.1621
     49  C        -19.7240   43.5810   13.8240 C.2    42  HIS42       0.2264
     50  O        -20.4860   44.3770   14.3740 O.2    42  HIS42      -0.2867
     51  CB       -20.5290   41.6160   12.5060 C.3    42  HIS42       0.0745
     52  CG       -21.1630   41.1160   11.2460 C.ar   42  HIS42       0.0817
     53  ND1      -21.8250   39.9100   11.1790 N.ar   42  HIS42      -0.2268
     54  CD2      -21.2480   41.6610   10.0090 C.ar   42  HIS42       0.1154
     55  CE1      -22.2810   39.7280    9.9530 C.ar   42  HIS42       0.1986
     56  NE2      -21.9450   40.7770    9.2230 N.ar   42  HIS42      -0.2212
     57  N        -21.2150   46.9180   15.5810 N.3    46  ASP46      -0.1239
     58  CA       -21.7690   46.9220   16.9360 C.3    46  ASP46       0.1674
     59  C        -21.0750   47.9190   17.8570 C.2    46  ASP46       0.2266
     60  O        -21.7340   48.5810   18.6560 O.2    46  ASP46      -0.2867
     61  CB       -21.7190   45.5190   17.5520 C.3    46  ASP46       0.1410
     62  CG       -22.8880   44.6480   17.1280 C.2    46  ASP46       0.3668
     63  OD1      -23.8620   45.1790   16.5520 O.co2  46  ASP46      -0.2456
     64  OD2      -22.8360   43.4250   17.3790 O.co2  46  ASP46      -0.2456
     65  N        -27.7390   47.6590   18.3300 N.3    56  ASP56      -0.1225
     66  CA       -26.7870   46.7800   17.6460 C.3    56  ASP56       0.1805
     67  C        -27.1900   46.4960   16.1970 C.2    56  ASP56       0.2598
     68  O        -28.2010   47.0100   15.7090 O.2    56  ASP56      -0.2718
     69  CB       -26.5820   45.4680   18.4250 C.3    56  ASP56       0.1424
     70  CG       -27.8830   44.7160   18.6880 C.2    56  ASP56       0.3668
     71  OD1      -28.8090   44.7660   17.8510 O.co2  56  ASP56      -0.2456
     72  OD2      -27.9710   44.0540   19.7420 O.co2  56  ASP56      -0.2456
     73  N        -26.3900   45.6710   15.5250 N.am   57  ILE57      -0.1966
     74  CA       -26.6130   45.3030   14.1260 C.3    57  ILE57       0.1727
     75  C        -27.9680   44.6070   13.9080 C.2    57  ILE57       0.2617
     76  O        -28.6080   44.7940   12.8710 O.2    57  ILE57      -0.2715
     77  CB       -25.4110   44.4720   13.5610 C.3    57  ILE57       0.0290
     78  CG1      -25.4110   44.4710   12.0270 C.3    57  ILE57       0.0022
     79  CG2      -25.3600   43.0520   14.1620 C.3    57  ILE57       0.0023
     80  CD1      -24.0770   44.0760   11.4050 C.3    57  ILE57       0.0001
     81  N        -28.3990   43.8290   14.9020 N.am   58  GLY58      -0.1940
     82  CA       -29.6680   43.1030   14.8470 C.3    58  GLY58       0.2014
     83  C        -30.8770   44.0020   15.0160 C.2    58  GLY58       0.2638
     84  O        -31.8990   43.8060   14.3550 O.2    58  GLY58      -0.2714
     85  N        -30.7580   44.9810   15.9120 N.am   59  LYS59      -0.1977
     86  CA       -31.7810   46.0090   16.1130 C.3    59  LYS59       0.1596
     87  C        -31.9960   46.8150   14.8290 C.2    59  LYS59       0.2287
     88  O        -33.1350   47.0880   14.4360 O.2    59  LYS59      -0.2864
     89  CB       -31.3770   46.9400   17.2660 C.3    59  LYS59       0.0298
     90  CG       -32.2280   48.2050   17.4180 C.3    59  LYS59       0.0038
     91  CD       -33.4140   48.0020   18.3510 C.3    59  LYS59       0.0206
     92  CE       -33.0810   48.4100   19.7810 C.3    59  LYS59       0.1093
     93  NZ       -32.9710   49.8910   19.9400 N.3    59  LYS59      -0.1314
     94  N        -30.8730   45.9400   11.6670 N.3    61  PHE61      -0.1228
     95  CA       -31.2090   45.0490   10.5580 C.3    61  PHE61       0.1721
     96  C        -31.7830   43.7210   11.0650 C.2    61  PHE61       0.2437
     97  O        -31.0560   42.7280   11.1740 O.2    61  PHE61      -0.2733
     98  CB       -29.9840   44.8020    9.6680 C.3    61  PHE61       0.0547
     99  CG       -29.1880   46.0420    9.3670 C.ar   61  PHE61      -0.0202
    100  CD1      -29.6270   46.9520    8.4120 C.ar   61  PHE61      -0.0042
    101  CD2      -27.9960   46.2960   10.0360 C.ar   61  PHE61      -0.0042
    102  CE1      -28.8920   48.1000    8.1310 C.ar   61  PHE61      -0.0003
    103  CE2      -27.2530   47.4400    9.7620 C.ar   61  PHE61      -0.0003
    104  CZ       -27.7020   48.3440    8.8060 C.ar   61  PHE61      -0.0000
    105  N        -33.0920   43.7010   11.3820 N.am   62  PRO62      -0.2718
    106  CA       -33.7330   42.4770   11.8620 C.3    62  PRO62       0.1535
    107  C        -34.2340   41.5810   10.7270 C.2    62  PRO62       0.2598
    108  O        -34.2340   41.9920    9.5630 O.2    62  PRO62      -0.2715
    109  CB       -34.9110   43.0060   12.6840 C.3    62  PRO62       0.0310
    110  CG       -35.2480   44.3320   12.0710 C.3    62  PRO62       0.0237
    111  CD       -34.0430   44.8280   11.3110 C.3    62  PRO62       0.0939
    112  N        -34.6500   40.3630   11.0770 N.am   63  ASP63      -0.1972
    113  CA       -35.2570   39.4330   10.1220 C.3    63  ASP63       0.1709
    114  C        -36.7040   39.8180    9.7990 C.2    63  ASP63       0.2293
    115  O        -37.3280   39.2360    8.9060 O.2    63  ASP63      -0.2864
    116  CB       -35.1860   37.9960   10.6480 C.3    63  ASP63       0.1436
    117  CG       -33.7800   37.4200   10.5940 C.2    63  ASP63       0.3671
    118  OD1      -33.1790   37.3960    9.4960 O.co2  63  ASP63      -0.2456
    119  OD2      -33.2800   36.9800   11.6530 O.co2  63  ASP63      -0.2456
    120  N        -32.5500   44.7790    4.0500 N.3    68  PHE68      -0.1227
    121  CA       -31.1170   44.4850    4.0500 C.3    68  PHE68       0.1736
    122  C        -30.7880   42.9920    4.0880 C.2    68  PHE68       0.2595
    123  O        -29.6560   42.6050    4.3910 O.2    68  PHE68      -0.2718
    124  CB       -30.4140   45.2460    5.1800 C.3    68  PHE68       0.0547
    125  CG       -30.3020   46.7220    4.9290 C.ar   68  PHE68      -0.0202
    126  CD1      -29.1870   47.2470    4.2790 C.ar   68  PHE68      -0.0042
    127  CD2      -31.3160   47.5880    5.3300 C.ar   68  PHE68      -0.0042
    128  CE1      -29.0800   48.6160    4.0360 C.ar   68  PHE68      -0.0003
    129  CE2      -31.2200   48.9570    5.0940 C.ar   68  PHE68      -0.0003
    130  CZ       -30.1000   49.4720    4.4440 C.ar   68  PHE68      -0.0000
    131  N        -31.7780   42.1620    3.7640 N.am   69  LYS69      -0.1980
    132  CA       -31.5670   40.7220    3.6210 C.3    69  LYS69       0.1596
    133  C        -30.7070   40.4440    2.3920 C.2    69  LYS69       0.2287
    134  O        -31.0210   40.8950    1.2880 O.2    69  LYS69      -0.2864
    135  CB       -32.9020   39.9750    3.5140 C.3    69  LYS69       0.0298
    136  CG       -33.6730   39.8640    4.8230 C.3    69  LYS69       0.0038
    137  CD       -34.9170   39.0070    4.6470 C.3    69  LYS69       0.0206
    138  CE       -35.7990   39.0460    5.8850 C.3    69  LYS69       0.1093
    139  NZ       -37.1270   38.4180    5.6310 N.3    69  LYS69      -0.1314
    140  N        -23.7650   47.0920    5.2120 N.3    76  LEU76      -0.1245
    141  CA       -24.3490   47.2070    6.5480 C.3    76  LEU76       0.1561
    142  C        -23.5580   48.1810    7.4210 C.2    76  LEU76       0.2260
    143  O        -24.1470   48.9590    8.1710 O.2    76  LEU76      -0.2867
    144  CB       -24.4470   45.8320    7.2270 C.3    76  LEU76       0.0270
    145  CG       -25.3410   44.7610    6.5820 C.3    76  LEU76       0.0019
    146  CD1      -25.0360   43.3820    7.1540 C.3    76  LEU76       0.0001
    147  CD2      -26.8280   45.0890    6.7220 C.3    76  LEU76       0.0001
@<TRIPOS>BOND
     1   134   133    2
     2   133   132    1
     3   135   132    1
     4   135   136    1
     5   132   131    1
     6   131   122   am
     7   128   126   ar
     8   128   130   ar
     9   120   121    1
    10   121   122    1
    11   121   124    1
    12   122   123    2
    13   126   125   ar
    14   130   129   ar
    15   137   136    1
    16   137   138    1
    17   125   124    1
    18   125   127   ar
    19   129   127   ar
    20   140   141    1
    21    44    43    2
    22    43    42    1
    23   139   138    1
    24    34    33    2
    25    42    41    1
    26    42    45    1
    27    29    28    2
    28   141   144    1
    29   141   142    1
    30   145   147    1
    31   145   146    1
    32   145   144    1
    33    33    41   am
    34    33    32    1
    35    45    46    1
    36    32    31    1
    37    32    35    1
    38   142   143    2
    39    28    31   am
    40    28    27    1
    41   102   100   ar
    42   102   104   ar
    43    26    27    1
    44    35    36    1
    45    37    36   ar
    46    37    39   ar
    47   100    99   ar
    48    27    30    1
    49   104   103   ar
    50    36    38   ar
    51   115   114    2
    52    39    40   ar
    53    56    55   ar
    54    56    54   ar
    55    99    98    1
    56    99   101   ar
    57   118   117   ar
    58   108   107    2
    59    98    95    1
    60   103   101   ar
    61   114   113    1
    62    38    40   ar
    63    55    53   ar
    64    54    52   ar
    65   113   116    1
    66   113   112    1
    67    95    96    1
    68    95    94    1
    69   117   116    1
    70   117   119   ar
    71   107   112   am
    72   107   106    1
    73    96    97    2
    74    96   105   am
    75    53    52   ar
    76    52    51    1
    77   111   105    1
    78   111   110    1
    79   105   106    1
    80    80    78    1
    81    47    48    1
    82    25    23   ar
    83    25    24   ar
    84    23    21   ar
    85    24    22   ar
    86   106   109    1
    87    21    22   ar
    88    21    20    1
    89    78    77    1
    90   110   109    1
    91    20    17    1
    92    48    51    1
    93    48    49    1
    94    76    75    2
    95    18    17    1
    96    18    19    2
    97    17    16    1
    98    77    74    1
    99    77    79    1
   100     8     6   ar
   101    49    50    2
   102    75    74    1
   103    75    81   am
   104    74    73    1
   105    84    83    2
   106    88    87    2
   107    16    11   am
   108    87    86    1
   109    82    81    1
   110    82    83    1
   111     6     7   ar
   112     6     5    1
   113    83    85   am
   114    12    11    2
   115    11    10    1
   116    73    67   am
   117    57    58    1
   118    68    67    2
   119     5     2    1
   120    85    86    1
   121    86    89    1
   122    67    66    1
   123    63    62   ar
   124    10     9    1
   125    10    13    1
   126     9     3   am
   127    58    61    1
   128    58    59    1
   129     3     2    1
   130     3     4    2
   131    62    64   ar
   132    62    61    1
   133     2     1    1
   134    89    90    1
   135    90    91    1
   136    14    13    1
   137    66    65    1
   138    66    69    1
   139    13    15    1
   140    71    70   ar
   141    59    60    2
   142    91    92    1
   143    69    70    1
   144    70    72   ar
   145    92    93    1
