@<TRIPOS>MOLECULE
tmp/2amvA01.pdb
 160 153 0 0 0
SMALL
GASTEIGER

@<TRIPOS>ATOM
      1  N         18.7740    1.9230   46.1860 N.3    55  TRP55      -0.1227
      2  CA        20.0130    2.5940   46.5640 C.3    55  TRP55       0.1737
      3  C         20.9150    1.7010   47.4120 C.2    55  TRP55       0.2595
      4  O         22.1160    1.6090   47.1630 O.2    55  TRP55      -0.2718
      5  CB        19.6980    3.8780   47.3410 C.3    55  TRP55       0.0564
      6  CG        20.8770    4.8240   47.5050 C.ar   55  TRP55       0.0003
      7  CD1       22.1740    4.6040   47.1180 C.ar   55  TRP55       0.0946
      8  CD2       20.8440    6.1500   48.0510 C.ar   55  TRP55       0.0152
      9  NE1       22.9420    5.7140   47.3870 N.ar   55  TRP55      -0.2442
     10  CE2       22.1520    6.6800   47.9620 C.ar   55  TRP55       0.0810
     11  CE3       19.8360    6.9490   48.6090 C.ar   55  TRP55       0.0012
     12  CZ2       22.4800    7.9700   48.4050 C.ar   55  TRP55       0.0191
     13  CZ3       20.1620    8.2350   49.0520 C.ar   55  TRP55       0.0001
     14  CH2       21.4740    8.7280   48.9460 C.ar   55  TRP55       0.0015
     15  N         20.3290    1.0470   48.4140 N.am   56  ILE56      -0.1980
     16  CA        21.0810    0.1770   49.3150 C.3    56  ILE56       0.1595
     17  C         21.4780   -1.1400   48.6560 C.2    56  ILE56       0.2287
     18  O         22.6090   -1.6130   48.8140 O.2    56  ILE56      -0.2864
     19  CB        20.2600   -0.1180   50.6120 C.3    56  ILE56       0.0276
     20  CG1       20.2240    1.1270   51.5030 C.3    56  ILE56       0.0022
     21  CG2       20.8780   -1.2870   51.3920 C.3    56  ILE56       0.0022
     22  CD1       19.1890    1.0520   52.6010 C.3    56  ILE56       0.0001
     23  N         24.4760   -0.7150   46.0960 N.3    59  GLN59      -0.1231
     24  CA        25.7780   -0.6290   46.7800 C.3    59  GLN59       0.1698
     25  C         26.1840   -1.9650   47.3650 C.2    59  GLN59       0.2592
     26  O         27.3700   -2.2930   47.4370 O.2    59  GLN59      -0.2718
     27  CB        25.7450    0.4160   47.9040 C.3    59  GLN59       0.0381
     28  CG        25.6190    1.8550   47.4230 C.3    59  GLN59       0.0905
     29  CD        26.5480    2.1820   46.2500 C.2    59  GLN59       0.2608
     30  OE1       26.0940    2.4200   45.1230 O.2    59  GLN59      -0.2717
     31  NE2       27.8550    2.2000   46.5130 N.am   59  GLN59      -0.0878
     32  N         25.1940   -2.7290   47.8080 N.am   60  GLN60      -0.1979
     33  CA        25.4670   -4.0410   48.3590 C.3    60  GLN60       0.1601
     34  C         25.8730   -4.9300   47.1900 C.2    60  GLN60       0.2287
     35  O         26.8180   -5.7190   47.2960 O.2    60  GLN60      -0.2864
     36  CB        24.2210   -4.5790   49.0810 C.3    60  GLN60       0.0394
     37  CG        23.9890   -3.8890   50.4140 C.3    60  GLN60       0.0908
     38  CD        22.7270   -4.3170   51.1350 C.2    60  GLN60       0.2608
     39  OE1       22.5760   -4.0640   52.3300 O.2    60  GLN60      -0.2717
     40  NE2       21.8120   -4.9580   50.4180 N.am   60  GLN60      -0.0878
     41  N         29.3300   -4.4050   46.3180 N.3    63  TYR63      -0.1241
     42  CA        30.1850   -4.9210   47.3710 C.3    63  TYR63       0.1605
     43  C         30.3100   -6.4330   47.2510 C.2    63  TYR63       0.2264
     44  O         31.4080   -6.9820   47.3050 O.2    63  TYR63      -0.2867
     45  CB        29.6380   -4.5530   48.7550 C.3    63  TYR63       0.0534
     46  CG        30.4870   -5.1240   49.8630 C.ar   63  TYR63      -0.0201
     47  CD1       31.7900   -4.6670   50.0740 C.ar   63  TYR63      -0.0009
     48  CD2       30.0220   -6.1770   50.6480 C.ar   63  TYR63      -0.0009
     49  CE1       32.6160   -5.2540   51.0300 C.ar   63  TYR63       0.0417
     50  CE2       30.8390   -6.7750   51.6090 C.ar   63  TYR63       0.0417
     51  CZ        32.1330   -6.3100   51.7940 C.ar   63  TYR63       0.1957
     52  OH        32.9390   -6.9150   52.7280 O.3    63  TYR63      -0.2866
     53  N         35.5920   -0.6290   39.7110 N.3    69  ARG69      -0.1245
     54  CA        34.7780    0.5610   39.9390 C.3    69  ARG69       0.1563
     55  C         35.2670    1.7470   39.1490 C.2    69  ARG69       0.2260
     56  O         36.4700    1.9890   39.0410 O.2    69  ARG69      -0.2867
     57  CB        34.7610    0.9570   41.4200 C.3    69  ARG69       0.0307
     58  CG        34.8930   -0.1800   42.3800 C.3    69  ARG69       0.0489
     59  CD        33.5720   -0.8810   42.5760 C.3    69  ARG69       0.2205
     60  NE        33.7690   -2.0690   43.3940 N.pl3  69  ARG69      -0.0865
     61  CZ        33.2090   -2.2650   44.5820 C.cat  69  ARG69       0.5346
     62  NH1       32.4200   -1.3440   45.0980 N.pl3  69  ARG69       0.1354
     63  NH2       33.4670   -3.3750   45.2540 N.pl3  69  ARG69       0.1354
     64  N         30.9860    5.8170   40.4880 N.3   143  TYR143     -0.1241
     65  CA        30.7860    6.7190   41.6050 C.3   143  TYR143      0.1605
     66  C         31.2180    8.1220   41.2300 C.2   143  TYR143      0.2264
     67  O         32.3430    8.3200   40.7770 O.2   143  TYR143     -0.2867
     68  CB        31.6250    6.2620   42.8030 C.3   143  TYR143      0.0534
     69  CG        31.3940    4.8440   43.2750 C.ar  143  TYR143     -0.0201
     70  CD1       31.9340    3.7550   42.5840 C.ar  143  TYR143     -0.0009
     71  CD2       30.6660    4.5920   44.4410 C.ar  143  TYR143     -0.0009
     72  CE1       31.7550    2.4470   43.0480 C.ar  143  TYR143      0.0417
     73  CE2       30.4830    3.2900   44.9140 C.ar  143  TYR143      0.0417
     74  CZ        31.0250    2.2250   44.2150 C.ar  143  TYR143      0.1957
     75  OH        30.8300    0.9420   44.6730 O.3   143  TYR143     -0.2866
     76  N         27.1850   11.3660   55.3510 N.3   181  ARG181     -0.1245
     77  CA        27.7070   10.1490   55.9540 C.3   181  ARG181      0.1563
     78  C         28.8980   10.5490   56.8000 C.2   181  ARG181      0.2260
     79  O         30.0480   10.3540   56.4060 O.2   181  ARG181     -0.2867
     80  CB        28.1360    9.1350   54.8910 C.3   181  ARG181      0.0307
     81  CG        27.0770    8.8630   53.8070 C.3   181  ARG181      0.0489
     82  CD        25.8490    8.0640   54.2850 C.3   181  ARG181      0.2205
     83  NE        25.0990    7.5140   53.1550 N.pl3 181  ARG181     -0.0865
     84  CZ        23.9620    6.8250   53.2470 C.cat 181  ARG181      0.5346
     85  NH1       23.4230    6.5880   54.4290 N.pl3 181  ARG181      0.1354
     86  NH2       23.3640    6.3650   52.1490 N.pl3 181  ARG181      0.1354
     87  N         30.3900    9.2320   59.2450 N.3   183  GLU183     -0.1231
     88  CA        31.3420    8.1490   59.4670 C.3   183  GLU183      0.1699
     89  C         32.4080    8.0500   58.3810 C.2   183  GLU183      0.2592
     90  O         33.4250    7.3790   58.5710 O.2   183  GLU183     -0.2718
     91  CB        30.6070    6.8100   59.5890 C.3   183  GLU183      0.0402
     92  CG        29.9540    6.3370   58.3020 C.3   183  GLU183      0.1161
     93  CD        28.4810    6.6790   58.2470 C.2   183  GLU183      0.3649
     94  OE1       28.1050    7.7810   58.7080 O.co2 183  GLU183     -0.2457
     95  OE2       27.6940    5.8510   57.7480 O.co2 183  GLU183     -0.2457
     96  N         32.1860    8.7080   57.2450 N.am  184  PHE184     -0.1976
     97  CA        33.1620    8.6600   56.1570 C.3   184  PHE184      0.1639
     98  C         33.9510    9.9590   56.0240 C.2   184  PHE184      0.2290
     99  O         34.6270   10.1870   55.0200 O.2   184  PHE184     -0.2864
    100  CB        32.4680    8.3450   54.8230 C.3   184  PHE184      0.0560
    101  CG        32.2050    6.8810   54.6010 C.ar  184  PHE184     -0.0200
    102  CD1       32.9950    5.9160   55.2090 C.ar  184  PHE184     -0.0042
    103  CD2       31.1740    6.4720   53.7660 C.ar  184  PHE184     -0.0042
    104  CE1       32.7690    4.5630   54.9780 C.ar  184  PHE184     -0.0003
    105  CE2       30.9390    5.1200   53.5260 C.ar  184  PHE184     -0.0003
    106  CZ        31.7340    4.1650   54.1330 C.ar  184  PHE184     -0.0000
    107  N         25.9790   12.0470   50.1830 N.3   215  ASP215     -0.1239
    108  CA        25.6010   11.1990   49.0550 C.3   215  ASP215      0.1674
    109  C         24.3030   11.6530   48.3880 C.2   215  ASP215      0.2266
    110  O         23.3640   12.0750   49.0580 O.2   215  ASP215     -0.2867
    111  CB        25.4130    9.7390   49.5130 C.3   215  ASP215      0.1410
    112  CG        26.7200    9.0590   49.8890 C.2   215  ASP215      0.3668
    113  OD1       27.8040    9.6100   49.6100 O.co2 215  ASP215     -0.2456
    114  OD2       26.6620    7.9490   50.4710 O.co2 215  ASP215     -0.2456
    115  N         25.7590    6.3890   43.1630 N.3   228  THR228     -0.1218
    116  CA        25.9360    7.4920   44.1050 C.3   228  THR228      0.1862
    117  C         26.8270    8.6630   43.6770 C.2   228  THR228      0.2287
    118  O         27.8630    8.4690   43.0380 O.2   228  THR228     -0.2866
    119  CB        26.4970    6.9320   45.4630 C.3   228  THR228      0.1770
    120  OG1       25.4450    6.2730   46.1850 O.3   228  THR228     -0.2211
    121  CG2       27.0870    8.0520   46.3160 C.3   228  THR228      0.0375
    122  N         28.9210   11.3730   45.4890 N.3   230  ARG230     -0.1245
    123  CA        29.4870   11.7280   46.7770 C.3   230  ARG230      0.1563
    124  C         30.2350   13.0580   46.7040 C.2   230  ARG230      0.2260
    125  O         31.3290   13.1260   46.1510 O.2   230  ARG230     -0.2867
    126  CB        30.4430   10.6190   47.2580 C.3   230  ARG230      0.0307
    127  CG        31.1830   10.9470   48.5680 C.3   230  ARG230      0.0489
    128  CD        31.5780    9.7050   49.3520 C.3   230  ARG230      0.2205
    129  NE        30.3970    9.0010   49.8450 N.pl3 230  ARG230     -0.0865
    130  CZ        30.3780    7.7300   50.2510 C.cat 230  ARG230      0.5346
    131  NH1       31.4820    6.9930   50.2300 N.pl3 230  ARG230      0.1354
    132  NH2       29.2370    7.1890   50.6590 N.pl3 230  ARG230      0.1354
    133  N         40.1330    3.0200   50.4680 N.3   297  ARG297     -0.1231
    134  CA        39.4830    2.3000   51.5530 C.3   297  ARG297      0.1694
    135  C         38.5970    1.2290   50.9520 C.2   297  ARG297      0.2591
    136  O         38.6790    0.0590   51.3220 O.2   297  ARG297     -0.2718
    137  CB        38.6390    3.2500   52.4140 C.3   297  ARG297      0.0321
    138  CG        37.7350    2.5350   53.4110 C.3   297  ARG297      0.0489
    139  CD        36.4840    3.3260   53.7150 C.3   297  ARG297      0.2205
    140  NE        35.3300    2.8350   52.9730 N.pl3 297  ARG297     -0.0865
    141  CZ        34.7550    3.5180   51.9940 C.cat 297  ARG297      0.5346
    142  NH1       35.2450    4.6990   51.6660 N.pl3 297  ARG297      0.1354
    143  NH2       33.6940    3.0390   51.3580 N.pl3 297  ARG297      0.1354
    144  N         37.7520    1.6380   50.0130 N.am  298  ARG298     -0.1980
    145  CA        36.8370    0.7160   49.3540 C.3   298  ARG298      0.1597
    146  C         37.5880   -0.4210   48.6730 C.2   298  ARG298      0.2287
    147  O         37.1090   -1.5520   48.6280 O.2   298  ARG298     -0.2864
    148  CB        35.9800    1.4670   48.3340 C.3   298  ARG298      0.0334
    149  CG        34.8130    0.6480   47.8190 C.3   298  ARG298      0.0492
    150  CD        33.5710    1.5010   47.6960 C.3   298  ARG298      0.2205
    151  NE        33.9120    2.7610   47.0580 N.pl3 298  ARG298     -0.0865
    152  CZ        33.2880    3.9050   47.2450 C.cat 298  ARG298      0.5346
    153  NH1       32.2710    3.9870   48.0770 N.pl3 298  ARG298      0.1354
    154  NH2       33.7100    4.9830   46.6100 N.pl3 298  ARG298      0.1354
    155  N         38.7870   -2.9400   51.2780 N.3   301  SER301     -0.1217
    156  CA        37.6960   -3.7110   51.8800 C.3   301  SER301      0.1889
    157  C         37.0790   -4.8980   51.1270 C.2   301  SER301      0.2288
    158  O         35.9490   -5.2900   51.4160 O.2   301  SER301     -0.2866
    159  CB        36.5730   -2.7570   52.2970 C.3   301  SER301      0.2089
    160  OG        37.0460   -1.7990   53.2250 O.3   301  SER301     -0.2183
@<TRIPOS>BOND
     1    56    55    2
     2    55    54    1
     3    53    54    1
     4    54    57    1
     5    64    65    1
     6    67    66    2
     7    66    65    1
     8    57    58    1
     9    65    68    1
    10    58    59    1
    11    59    60    1
    12    70    72   ar
    13    70    69   ar
    14    68    69    1
    15   118   117    2
    16    72    74   ar
    17   115   116    1
    18    69    71   ar
    19    60    61    2
    20   117   116    1
    21   116   119    1
    22    74    75    1
    23    74    73   ar
    24    71    73   ar
    25    61    62    1
    26    61    63    1
    27    30    29    2
    28   119   120    1
    29   119   121    1
    30   122   123    1
    31    23    24    1
    32   125   124    2
    33     1     2    1
    34    29    31   am
    35    29    28    1
    36    41    42    1
    37     2     5    1
    38     2     3    1
    39   154   152    1
    40   124   123    1
    41   123   126    1
    42    24    25    1
    43    24    27    1
    44   151   152    2
    45   151   150    1
    46     7     9   ar
    47     7     6   ar
    48     4     3    2
    49    34    35    2
    50    34    33    1
    51   152   153    1
    52    43    44    2
    53    43    42    1
    54   126   127    1
    55     5     6    1
    56    25    26    2
    57    25    32   am
    58    42    45    1
    59     9    10   ar
    60     3    15   am
    61    28    27    1
    62     6     8   ar
    63   150   149    1
    64    32    33    1
    65   149   148    1
    66    10     8   ar
    67    10    12   ar
    68     8    11   ar
    69   148   145    1
    70    33    36    1
    71   109   108    1
    72   109   110    2
    73    12    14   ar
    74    15    16    1
    75   127   128    1
    76    11    13   ar
    77   147   146    2
    78    17    18    2
    79    17    16    1
    80   146   145    1
    81    45    46    1
    82    14    13   ar
    83   108   111    1
    84   108   107    1
    85    36    37    1
    86    16    19    1
    87   128   129    1
    88   145   144    1
    89   111   112    1
    90   113   112   ar
    91   129   130    2
    92    46    47   ar
    93    46    48   ar
    94   112   114   ar
    95   144   135   am
    96    47    49   ar
    97   131   130    1
    98   130   132    1
    99    37    38    1
   100    40    38   am
   101   133   134    1
   102    19    21    1
   103    19    20    1
   104    48    50   ar
   105   135   136    2
   106   135   134    1
   107    49    51   ar
   108   157   158    2
   109   157   156    1
   110    38    39    2
   111   155   156    1
   112   143   141    1
   113    20    22    1
   114   134   137    1
   115    50    51   ar
   116   142   141    1
   117    51    52    1
   118   156   159    1
   119   141   140    2
   120    86    84    1
   121   159   160    1
   122   137   138    1
   123   140   139    1
   124    83    84    2
   125    83    82    1
   126    84    85    1
   127   138   139    1
   128   105   103   ar
   129   105   106   ar
   130   103   101   ar
   131    81    82    1
   132    81    80    1
   133   106   104   ar
   134   101   100    1
   135   101   102   ar
   136   100    97    1
   137    80    77    1
   138   104   102   ar
   139    99    98    2
   140    76    77    1
   141    77    78    1
   142    98    97    1
   143    97    96    1
   144    79    78    2
   145    96    89   am
   146    95    93   ar
   147    93    92    1
   148    93    94   ar
   149    92    91    1
   150    89    90    2
   151    89    88    1
   152    87    88    1
   153    88    91    1
