@<TRIPOS>MOLECULE
tmp/2an3B01.pdb
 140 130 0 0 0
SMALL
GASTEIGER

@<TRIPOS>ATOM
      1  N         36.2530   59.4680  -24.4790 N.3    23  TYR23      -0.1241
      2  CA        34.8630   59.1020  -24.7500 C.3    23  TYR23       0.1605
      3  C         34.1460   58.8310  -23.4370 C.2    23  TYR23       0.2264
      4  O         33.0900   59.4150  -23.1640 O.2    23  TYR23      -0.2867
      5  CB        34.7920   57.8510  -25.6320 C.3    23  TYR23       0.0534
      6  CG        33.3800   57.4010  -25.9320 C.ar   23  TYR23      -0.0201
      7  CD1       32.6020   58.0710  -26.8760 C.ar   23  TYR23      -0.0009
      8  CD2       32.8070   56.3280  -25.2450 C.ar   23  TYR23      -0.0009
      9  CE1       31.2870   57.6880  -27.1330 C.ar   23  TYR23       0.0417
     10  CE2       31.4920   55.9360  -25.4920 C.ar   23  TYR23       0.0417
     11  CZ        30.7390   56.6230  -26.4370 C.ar   23  TYR23       0.1957
     12  OH        29.4450   56.2450  -26.6840 O.3    23  TYR23      -0.2866
     13  N         30.9650   61.0440  -21.7070 N.3    27  ASN27      -0.1225
     14  CA        29.6250   60.4990  -21.5630 C.3    27  ASN27       0.1785
     15  C         29.2910   59.6890  -20.3240 C.2    27  ASN27       0.2597
     16  O         28.1200   59.5040  -20.0140 O.2    27  ASN27      -0.2718
     17  CB        29.3060   59.6710  -22.8070 C.3    27  ASN27       0.1169
     18  CG        29.4660   60.4700  -24.0880 C.2    27  ASN27       0.2627
     19  OD1       28.6350   61.3230  -24.4090 O.2    27  ASN27      -0.2716
     20  ND2       30.5430   60.2080  -24.8180 N.am   27  ASN27      -0.0877
     21  N         30.2950   59.2130  -19.6020 N.am   28  TYR28      -0.1976
     22  CA        30.0020   58.4110  -18.4320 C.3    28  TYR28       0.1639
     23  C         30.6530   58.8840  -17.1320 C.2    28  TYR28       0.2290
     24  O         30.8260   58.1240  -16.1830 O.2    28  TYR28      -0.2864
     25  CB        30.3150   56.9470  -18.7620 C.3    28  TYR28       0.0560
     26  CG        29.5060   56.4880  -19.9610 C.ar   28  TYR28      -0.0198
     27  CD1       30.0570   56.4850  -21.2380 C.ar   28  TYR28      -0.0009
     28  CD2       28.1500   56.1710  -19.8300 C.ar   28  TYR28      -0.0009
     29  CE1       29.2780   56.1860  -22.3650 C.ar   28  TYR28       0.0417
     30  CE2       27.3640   55.8730  -20.9430 C.ar   28  TYR28       0.0417
     31  CZ        27.9320   55.8860  -22.2080 C.ar   28  TYR28       0.1957
     32  OH        27.1500   55.6390  -23.3110 O.3    28  TYR28      -0.2866
     33  N         27.1250   64.0990  -17.0140 N.3    32  ARG32      -0.1245
     34  CA        26.3510   63.0060  -17.5860 C.3    32  ARG32       0.1563
     35  C         26.5140   61.7240  -16.7940 C.2    32  ARG32       0.2260
     36  O         25.5740   60.9390  -16.6700 O.2    32  ARG32      -0.2867
     37  CB        26.7560   62.7630  -19.0350 C.3    32  ARG32       0.0307
     38  CG        26.5010   63.9570  -19.9140 C.3    32  ARG32       0.0489
     39  CD        26.5480   63.5990  -21.3750 C.3    32  ARG32       0.2205
     40  NE        25.9730   64.6790  -22.1650 N.pl3  32  ARG32      -0.0865
     41  CZ        25.8590   64.6590  -23.4830 C.cat  32  ARG32       0.5346
     42  NH1       26.2810   63.6110  -24.1640 N.pl3  32  ARG32       0.1354
     43  NH2       25.3230   65.6900  -24.1100 N.pl3  32  ARG32       0.1354
     44  N         20.2860   61.6530  -18.1330 N.3    41  VAL41      -0.1245
     45  CA        20.1570   60.7120  -19.2430 C.3    41  VAL41       0.1561
     46  C         20.6200   59.2970  -18.8740 C.2    41  VAL41       0.2260
     47  O         20.1460   58.3090  -19.4460 O.2    41  VAL41      -0.2867
     48  CB        20.9570   61.2060  -20.4730 C.3    41  VAL41       0.0252
     49  CG1       22.4380   61.2810  -20.1400 C.3    41  VAL41       0.0019
     50  CG2       20.7190   60.2890  -21.6610 C.3    41  VAL41       0.0019
     51  N         18.3230   55.8790  -19.2830 N.3    45  LYS45      -0.1245
     52  CA        18.7250   54.7350  -20.0810 C.3    45  LYS45       0.1561
     53  C         18.6600   53.4460  -19.2580 C.2    45  LYS45       0.2260
     54  O         18.1530   52.4320  -19.7240 O.2    45  LYS45      -0.2867
     55  CB        20.1340   54.9430  -20.6360 C.3    45  LYS45       0.0271
     56  CG        20.2310   56.0670  -21.6610 C.3    45  LYS45       0.0035
     57  CD        21.6100   56.1390  -22.3100 C.3    45  LYS45       0.0206
     58  CE        22.6810   56.6070  -21.3320 C.3    45  LYS45       0.1093
     59  NZ        24.0170   56.7500  -21.9970 N.3    45  LYS45      -0.1314
     60  N         23.8960   53.6580  -29.2750 N.3   170  PHE170     -0.1241
     61  CA        24.6760   54.6830  -29.9580 C.3   170  PHE170      0.1605
     62  C         25.6620   54.1800  -31.0000 C.2   170  PHE170      0.2264
     63  O         26.7320   54.7550  -31.1700 O.2   170  PHE170     -0.2867
     64  CB        25.4180   55.5130  -28.9170 C.3   170  PHE170      0.0534
     65  CG        24.5210   56.0920  -27.8790 C.ar  170  PHE170     -0.0203
     66  CD1       24.5240   55.5910  -26.5760 C.ar  170  PHE170     -0.0042
     67  CD2       23.6370   57.1190  -28.2060 C.ar  170  PHE170     -0.0042
     68  CE1       23.6600   56.1020  -25.6160 C.ar  170  PHE170     -0.0003
     69  CE2       22.7670   57.6380  -27.2570 C.ar  170  PHE170     -0.0003
     70  CZ        22.7770   57.1300  -25.9570 C.ar  170  PHE170     -0.0000
     71  N         23.5600   54.9710  -35.7400 N.3   173  GLU173     -0.1231
     72  CA        23.4970   56.3450  -36.2120 C.3   173  GLU173      0.1699
     73  C         24.8640   57.0310  -36.1620 C.2   173  GLU173      0.2592
     74  O         25.1270   57.9770  -36.9180 O.2   173  GLU173     -0.2718
     75  CB        22.4660   57.1510  -35.4070 C.3   173  GLU173      0.0402
     76  CG        22.9410   57.6260  -34.0450 C.3   173  GLU173      0.1161
     77  CD        22.7760   56.5860  -32.9520 C.2   173  GLU173      0.3649
     78  OE1       22.4400   55.4280  -33.2740 O.co2 173  GLU173     -0.2457
     79  OE2       22.9880   56.9320  -31.7670 O.co2 173  GLU173     -0.2457
     80  N         25.7350   56.5300  -35.2880 N.am  174  ALA174     -0.1980
     81  CA        27.0690   57.0880  -35.1130 C.3   174  ALA174      0.1597
     82  C         28.0970   56.5570  -36.1180 C.2   174  ALA174      0.2287
     83  O         29.2450   57.0080  -36.1350 O.2   174  ALA174     -0.2864
     84  CB        27.5430   56.8300  -33.6940 C.3   174  ALA174      0.0319
     85  N         21.0630   58.2990  -30.4190 N.3   204  ALA204     -0.1245
     86  CA        20.9210   59.7460  -30.3380 C.3   204  ALA204      0.1562
     87  C         19.9180   60.2590  -31.3630 C.2   204  ALA204      0.2260
     88  O         19.8870   59.8000  -32.5040 O.2   204  ALA204     -0.2867
     89  CB        22.2670   60.4070  -30.5550 C.3   204  ALA204      0.0290
     90  N         21.2570   64.2840  -33.9370 N.3   207  GLU207     -0.1245
     91  CA        22.6370   64.5930  -33.5820 C.3   207  GLU207      0.1567
     92  C         23.5190   64.5580  -34.8330 C.2   207  GLU207      0.2260
     93  O         23.3370   63.7010  -35.6950 O.2   207  GLU207     -0.2867
     94  CB        23.1490   63.5810  -32.5520 C.3   207  GLU207      0.0388
     95  CG        24.5710   63.8300  -32.1110 C.3   207  GLU207      0.1160
     96  CD        25.0880   62.7730  -31.1630 C.2   207  GLU207      0.3649
     97  OE1       25.4780   63.1320  -30.0320 O.co2 207  GLU207     -0.2457
     98  OE2       25.1100   61.5870  -31.5550 O.co2 207  GLU207     -0.2457
     99  N         29.8350   64.2430  -32.2710 N.3   210  TYR210     -0.1241
    100  CA        30.1640   64.0070  -30.8730 C.3   210  TYR210      0.1605
    101  C         31.6780   63.8400  -30.8310 C.2   210  TYR210      0.2264
    102  O         32.2830   63.3820  -31.8090 O.2   210  TYR210     -0.2867
    103  CB        29.4450   62.7550  -30.3340 C.3   210  TYR210      0.0534
    104  CG        30.0150   61.4150  -30.7750 C.ar  210  TYR210     -0.0201
    105  CD1       30.9860   60.7610  -30.0120 C.ar  210  TYR210     -0.0009
    106  CD2       29.5440   60.7770  -31.9220 C.ar  210  TYR210     -0.0009
    107  CE1       31.4690   59.4900  -30.3860 C.ar  210  TYR210      0.0417
    108  CE2       30.0170   59.5160  -32.3050 C.ar  210  TYR210      0.0417
    109  CZ        30.9770   58.8780  -31.5290 C.ar  210  TYR210      0.1957
    110  OH        31.4250   57.6270  -31.8930 O.3   210  TYR210     -0.2866
    111  N         17.1810   65.8870  -24.2120 N.3   246  MET246     -0.1245
    112  CA        18.3890   66.2900  -23.5100 C.3   246  MET246      0.1570
    113  C         18.2400   67.6630  -22.8660 C.2   246  MET246      0.2261
    114  O         17.9270   68.6390  -23.5310 O.2   246  MET246     -0.2867
    115  CB        19.5790   66.2760  -24.4840 C.3   246  MET246      0.0387
    116  CG        20.9500   66.2500  -23.8160 C.3   246  MET246      0.0595
    117  SD        21.2790   64.7690  -22.8100 S.3   246  MET246     -0.1393
    118  CE        21.9530   63.6560  -24.0000 C.3   246  MET246      0.0692
    119  N         29.0100   67.2600  -27.7730 N.3   255  ASP255     -0.1239
    120  CA        28.1550   66.8730  -28.8980 C.3   255  ASP255      0.1674
    121  C         27.0050   67.8630  -29.0880 C.2   255  ASP255      0.2266
    122  O         26.8710   68.8150  -28.3290 O.2   255  ASP255     -0.2867
    123  CB        27.5670   65.4770  -28.6700 C.3   255  ASP255      0.1410
    124  CG        26.7330   65.3910  -27.3980 C.2   255  ASP255      0.3668
    125  OD1       26.0140   66.3630  -27.0740 O.co2 255  ASP255     -0.2456
    126  OD2       26.7850   64.3370  -26.7220 O.co2 255  ASP255     -0.2456
    127  N         23.7540   66.6070  -29.4780 N.3   257  VAL257     -0.1245
    128  CA        22.5890   65.7410  -29.3460 C.3   257  VAL257      0.1561
    129  C         21.3960   66.5000  -28.7720 C.2   257  VAL257      0.2260
    130  O         21.5500   67.3300  -27.8780 O.2   257  VAL257     -0.2867
    131  CB        22.8940   64.5000  -28.4450 C.3   257  VAL257      0.0252
    132  CG1       23.1870   64.9370  -27.0110 C.3   257  VAL257      0.0019
    133  CG2       21.7180   63.5480  -28.4650 C.3   257  VAL257      0.0019
    134  N         17.5150   61.3470  -26.9080 N.3   260  VAL260     -0.1245
    135  CA        17.9510   59.9570  -26.9400 C.3   260  VAL260      0.1561
    136  C         16.6860   59.1360  -27.0990 C.2   260  VAL260      0.2260
    137  O         15.6460   59.4640  -26.5180 O.2   260  VAL260     -0.2867
    138  CB        18.6690   59.5400  -25.6140 C.3   260  VAL260      0.0252
    139  CG1       18.9540   58.0470  -25.6170 C.3   260  VAL260      0.0019
    140  CG2       19.9630   60.3250  -25.4400 C.3   260  VAL260      0.0019
@<TRIPOS>BOND
     1    74    73    2
     2    72    73    1
     3    72    71    1
     4    72    75    1
     5    73    80   am
     6    83    82    2
     7    82    81    1
     8    93    92    2
     9    75    76    1
    10    80    81    1
    11    81    84    1
    12    92    91    1
    13    76    77    1
    14    90    91    1
    15    91    94    1
    16    78    77   ar
    17    77    79   ar
    18    94    95    1
    19    88    87    2
    20   108   106   ar
    21   108   109   ar
    22    99   100    1
    23    95    96    1
    24   106   104   ar
    25   110   109    1
    26   102   101    2
    27    98    96   ar
    28   109   107   ar
    29    87    86    1
    30    63    62    2
    31    96    97   ar
    32    62    61    1
    33   100   101    1
    34   100   103    1
    35   104   103    1
    36   104   105   ar
    37    89    86    1
    38    85    86    1
    39   107   105   ar
    40    61    60    1
    41    61    64    1
    42   127   128    1
    43   128   129    1
    44   128   131    1
    45   121   120    1
    46   121   122    2
    47    64    65    1
    48   120   123    1
    49   120   119    1
    50   129   130    2
    51   123   124    1
    52   133   131    1
    53   131   132    1
    54    67    65   ar
    55    67    69   ar
    56    65    66   ar
    57   124   125   ar
    58   124   126   ar
    59    69    70   ar
    60     9     7   ar
    61     9    11   ar
    62   136   135    1
    63   136   137    2
    64   135   134    1
    65   135   138    1
    66     7     6   ar
    67    12    11    1
    68    66    68   ar
    69    11    10   ar
    70    70    68   ar
    71     6     5    1
    72     6     8   ar
    73     5     2    1
    74   139   138    1
    75   138   140    1
    76    10     8   ar
    77    20    18   am
    78     2     1    1
    79     2     3    1
    80   115   116    1
    81   115   112    1
    82    19    18    2
    83   111   112    1
    84    42    41    1
    85    43    41    1
    86    18    17    1
    87   118   117    1
    88   116   117    1
    89   114   113    2
    90   112   113    1
    91    41    40    2
    92     3     4    2
    93    32    31    1
    94    17    14    1
    95    29    31   ar
    96    29    27   ar
    97    57    56    1
    98    57    58    1
    99    31    30   ar
   100    40    39    1
   101    59    58    1
   102    13    14    1
   103    56    55    1
   104    50    48    1
   105    14    15    1
   106    39    38    1
   107    27    26   ar
   108    30    28   ar
   109    55    52    1
   110    48    49    1
   111    48    45    1
   112    15    16    2
   113    15    21   am
   114    52    51    1
   115    52    53    1
   116    26    28   ar
   117    26    25    1
   118    38    37    1
   119    54    53    2
   120    21    22    1
   121    47    46    2
   122    45    46    1
   123    45    44    1
   124    37    34    1
   125    25    22    1
   126    22    23    1
   127    34    33    1
   128    34    35    1
   129    23    24    2
   130    35    36    2
