@<TRIPOS>MOLECULE
tmp/2an3B00.pdb
 225 221 0 0 0
SMALL
GASTEIGER

@<TRIPOS>ATOM
      1  N         33.9740   56.7330  -42.4990 N.3    11  VAL11      -0.1245
      2  CA        33.6760   56.4030  -41.1040 C.3    11  VAL11       0.1561
      3  C         34.8170   55.5920  -40.4970 C.2    11  VAL11       0.2260
      4  O         35.3050   55.9040  -39.4100 O.2    11  VAL11      -0.2867
      5  CB        32.3520   55.6120  -40.9950 C.3    11  VAL11       0.0252
      6  CG1       32.1890   55.0340  -39.5870 C.3    11  VAL11       0.0019
      7  CG2       31.1850   56.5340  -41.3180 C.3    11  VAL11       0.0019
      8  N         37.1300   56.8030  -37.1850 N.3    15  TYR15      -0.1241
      9  CA        37.2500   56.0870  -35.9200 C.3    15  TYR15       0.1605
     10  C         38.6650   55.6760  -35.5250 C.2    15  TYR15       0.2264
     11  O         38.8920   55.2510  -34.3930 O.2    15  TYR15      -0.2867
     12  CB        36.3030   54.8780  -35.8840 C.3    15  TYR15       0.0534
     13  CG        34.8920   55.2620  -35.4760 C.ar   15  TYR15      -0.0201
     14  CD1       33.9150   55.5750  -36.4300 C.ar   15  TYR15      -0.0009
     15  CD2       34.5630   55.4080  -34.1260 C.ar   15  TYR15      -0.0009
     16  CE1       32.6430   56.0340  -36.0370 C.ar   15  TYR15       0.0417
     17  CE2       33.3040   55.8650  -33.7230 C.ar   15  TYR15       0.0417
     18  CZ        32.3530   56.1770  -34.6750 C.ar   15  TYR15       0.1957
     19  OH        31.1340   56.6550  -34.2500 O.3    15  TYR15      -0.2866
     20  N         39.4610   57.5980  -32.6150 N.3    18  PHE18      -0.1241
     21  CA        38.5570   57.4580  -31.4740 C.3    18  PHE18       0.1605
     22  C         39.3460   57.1280  -30.2100 C.2    18  PHE18       0.2264
     23  O         40.0690   56.1380  -30.1740 O.2    18  PHE18      -0.2867
     24  CB        37.5480   56.3310  -31.7500 C.3    18  PHE18       0.0534
     25  CG        36.5320   56.1360  -30.6560 C.ar   18  PHE18      -0.0203
     26  CD1       35.2870   56.7490  -30.7300 C.ar   18  PHE18      -0.0042
     27  CD2       36.8220   55.3340  -29.5540 C.ar   18  PHE18      -0.0042
     28  CE1       34.3380   56.5680  -29.7250 C.ar   18  PHE18      -0.0003
     29  CE2       35.8790   55.1440  -28.5370 C.ar   18  PHE18      -0.0003
     30  CZ        34.6330   55.7650  -28.6260 C.ar   18  PHE18      -0.0000
     31  N         36.2530   59.4680  -24.4790 N.3    23  TYR23      -0.1241
     32  CA        34.8630   59.1020  -24.7500 C.3    23  TYR23       0.1605
     33  C         34.1460   58.8310  -23.4370 C.2    23  TYR23       0.2264
     34  O         33.0900   59.4150  -23.1640 O.2    23  TYR23      -0.2867
     35  CB        34.7920   57.8510  -25.6320 C.3    23  TYR23       0.0534
     36  CG        33.3800   57.4010  -25.9320 C.ar   23  TYR23      -0.0201
     37  CD1       32.6020   58.0710  -26.8760 C.ar   23  TYR23      -0.0009
     38  CD2       32.8070   56.3280  -25.2450 C.ar   23  TYR23      -0.0009
     39  CE1       31.2870   57.6880  -27.1330 C.ar   23  TYR23       0.0417
     40  CE2       31.4920   55.9360  -25.4920 C.ar   23  TYR23       0.0417
     41  CZ        30.7390   56.6230  -26.4370 C.ar   23  TYR23       0.1957
     42  OH        29.4450   56.2450  -26.6840 O.3    23  TYR23      -0.2866
     43  N         30.2950   59.2130  -19.6020 N.3    28  TYR28      -0.1241
     44  CA        30.0020   58.4110  -18.4320 C.3    28  TYR28       0.1605
     45  C         30.6530   58.8840  -17.1320 C.2    28  TYR28       0.2264
     46  O         30.8260   58.1240  -16.1830 O.2    28  TYR28      -0.2867
     47  CB        30.3150   56.9470  -18.7620 C.3    28  TYR28       0.0534
     48  CG        29.5060   56.4880  -19.9610 C.ar   28  TYR28      -0.0201
     49  CD1       30.0570   56.4850  -21.2380 C.ar   28  TYR28      -0.0009
     50  CD2       28.1500   56.1710  -19.8300 C.ar   28  TYR28      -0.0009
     51  CE1       29.2780   56.1860  -22.3650 C.ar   28  TYR28       0.0417
     52  CE2       27.3640   55.8730  -20.9430 C.ar   28  TYR28       0.0417
     53  CZ        27.9320   55.8860  -22.2080 C.ar   28  TYR28       0.1957
     54  OH        27.1500   55.6390  -23.3110 O.3    28  TYR28      -0.2866
     55  N         25.6210   42.1290  -28.1340 N.3    65  ASP65      -0.1239
     56  CA        25.6500   43.5800  -27.9720 C.3    65  ASP65       0.1674
     57  C         26.4230   44.1850  -29.1470 C.2    65  ASP65       0.2266
     58  O         27.6420   44.0280  -29.2550 O.2    65  ASP65      -0.2867
     59  CB        26.3090   43.9360  -26.6410 C.3    65  ASP65       0.1410
     60  CG        26.4610   45.4230  -26.4460 C.2    65  ASP65       0.3668
     61  OD1       25.5270   46.1670  -26.8160 O.co2  65  ASP65      -0.2456
     62  OD2       27.5090   45.8440  -25.9100 O.co2  65  ASP65      -0.2456
     63  N         28.1730   46.9490  -31.2940 N.3    67  GLY67      -0.1210
     64  CA        28.8960   48.1950  -31.0940 C.3    67  GLY67       0.1956
     65  C         29.0340   48.5920  -29.6310 C.2    67  GLY67       0.2613
     66  O         28.7430   49.7330  -29.2670 O.2    67  GLY67      -0.2717
     67  N         29.4990   47.6630  -28.7970 N.am   68  SER68      -0.1938
     68  CA        29.6590   47.9060  -27.3650 C.3    68  SER68       0.2055
     69  C         30.5760   49.0750  -27.0380 C.2    68  SER68       0.2644
     70  O         30.3800   49.7700  -26.0400 O.2    68  SER68      -0.2714
     71  CB        30.2220   46.6640  -26.6690 C.3    68  SER68       0.2130
     72  OG        29.7820   45.4730  -27.2930 O.3    68  SER68      -0.2179
     73  N         31.5910   49.2870  -27.8650 N.am   69  GLY69      -0.1940
     74  CA        32.5200   50.3560  -27.5680 C.3    69  GLY69       0.1999
     75  C         33.2280   49.9730  -26.2860 C.2    69  GLY69       0.2481
     76  O         33.4560   48.7870  -26.0520 O.2    69  GLY69      -0.2729
     77  N         33.5890   50.9350  -25.4270 N.am   70  PRO70      -0.2715
     78  CA        34.2780   50.5690  -24.1850 C.3    70  PRO70       0.1536
     79  C         33.3530   50.6300  -22.9760 C.2    70  PRO70       0.2599
     80  O         33.8050   50.8890  -21.8600 O.2    70  PRO70      -0.2715
     81  CB        35.3740   51.6220  -24.0960 C.3    70  PRO70       0.0310
     82  CG        34.6270   52.8460  -24.5270 C.3    70  PRO70       0.0237
     83  CD        33.7990   52.3640  -25.7280 C.3    70  PRO70       0.0939
     84  N         32.0660   50.3940  -23.1950 N.am   71  THR71      -0.1951
     85  CA        31.1010   50.4850  -22.1050 C.3    71  THR71       0.1897
     86  C         30.3560   49.1800  -21.8350 C.2    71  THR71       0.2313
     87  O         30.2640   48.3130  -22.7110 O.2    71  THR71      -0.2863
     88  CB        30.0710   51.5760  -22.4070 C.3    71  THR71       0.1794
     89  OG1       29.1550   51.0990  -23.3970 O.3    71  THR71      -0.2208
     90  CG2       30.7660   52.8220  -22.9470 C.3    71  THR71       0.0378
     91  N         27.4840   49.4340  -19.2650 N.3    73  TYR73      -0.1227
     92  CA        26.2450   49.8440  -18.6110 C.3    73  TYR73       0.1736
     93  C         25.0150   49.3200  -19.3350 C.2    73  TYR73       0.2595
     94  O         24.0090   49.0300  -18.7050 O.2    73  TYR73      -0.2718
     95  CB        26.1760   51.3730  -18.5170 C.3    73  TYR73       0.0548
     96  CG        25.7600   52.0240  -19.8170 C.ar   73  TYR73      -0.0200
     97  CD1       24.4070   52.2090  -20.1230 C.ar   73  TYR73      -0.0009
     98  CD2       26.7090   52.3530  -20.7860 C.ar   73  TYR73      -0.0009
     99  CE1       24.0160   52.6920  -21.3590 C.ar   73  TYR73       0.0417
    100  CE2       26.3280   52.8330  -22.0250 C.ar   73  TYR73       0.0417
    101  CZ        24.9810   52.9960  -22.3130 C.ar   73  TYR73       0.1957
    102  OH        24.5990   53.4070  -23.5650 O.3    73  TYR73      -0.2866
    103  N         25.1000   49.1960  -20.6570 N.am   74  GLN74      -0.1979
    104  CA        23.9740   48.7260  -21.4550 C.3    74  GLN74       0.1601
    105  C         23.6570   47.2430  -21.2300 C.2    74  GLN74       0.2287
    106  O         22.6780   46.7270  -21.7730 O.2    74  GLN74      -0.2864
    107  CB        24.2380   48.9690  -22.9520 C.3    74  GLN74       0.0394
    108  CG        25.3520   48.0970  -23.5670 C.3    74  GLN74       0.0908
    109  CD        26.7150   48.7740  -23.5460 C.2    74  GLN74       0.2608
    110  OE1       27.0240   49.5510  -22.6410 O.2    74  GLN74      -0.2717
    111  NE2       27.5410   48.4710  -24.5440 N.am   74  GLN74      -0.0878
    112  N         32.8460   45.1820  -31.1100 N.3    89  ASP89      -0.1225
    113  CA        33.2450   46.5190  -31.5240 C.3    89  ASP89       0.1805
    114  C         34.1950   46.4890  -32.7070 C.2    89  ASP89       0.2598
    115  O         34.9400   45.5250  -32.9220 O.2    89  ASP89      -0.2718
    116  CB        33.8830   47.3320  -30.4010 C.3    89  ASP89       0.1424
    117  CG        33.7690   48.8330  -30.6530 C.2    89  ASP89       0.3668
    118  OD1       32.6310   49.3440  -30.6360 O.co2  89  ASP89      -0.2456
    119  OD2       34.7970   49.5040  -30.8870 O.co2  89  ASP89      -0.2456
    120  N         34.1460   47.5750  -33.4680 N.am   90  PHE90      -0.1962
    121  CA        34.9570   47.7580  -34.6580 C.3    90  PHE90       0.1771
    122  C         36.4220   47.9700  -34.3110 C.2    90  PHE90       0.2619
    123  O         37.3110   47.4540  -34.9850 O.2    90  PHE90      -0.2715
    124  CB        34.4460   48.9820  -35.4240 C.3    90  PHE90       0.0574
    125  CG        35.1240   49.2040  -36.7420 C.ar   90  PHE90      -0.0200
    126  CD1       34.8680   48.3650  -37.8220 C.ar   90  PHE90      -0.0042
    127  CD2       36.0340   50.2440  -36.9010 C.ar   90  PHE90      -0.0042
    128  CE1       35.5090   48.5590  -39.0440 C.ar   90  PHE90      -0.0003
    129  CE2       36.6800   50.4470  -38.1180 C.ar   90  PHE90      -0.0003
    130  CZ        36.4190   49.6070  -39.1890 C.ar   90  PHE90      -0.0000
    131  N         36.6540   48.7380  -33.2530 N.am   91  LEU91      -0.1977
    132  CA        37.9960   49.0890  -32.8150 C.3    91  LEU91       0.1596
    133  C         38.6050   48.1500  -31.7900 C.2    91  LEU91       0.2287
    134  O         37.9280   47.6860  -30.8690 O.2    91  LEU91      -0.2864
    135  CB        37.9860   50.5080  -32.2530 C.3    91  LEU91       0.0297
    136  CG        37.6120   51.6080  -33.2510 C.3    91  LEU91       0.0022
    137  CD1       37.4850   52.9450  -32.5310 C.3    91  LEU91       0.0001
    138  CD2       38.6750   51.6860  -34.3360 C.3    91  LEU91       0.0001
    139  N         38.9270   49.5980  -28.1130 N.3    94  ASN94      -0.1240
    140  CA        37.7150   49.4960  -27.3060 C.3    94  ASN94       0.1653
    141  C         37.5980   48.0840  -26.7460 C.2    94  ASN94       0.2266
    142  O         37.2550   47.8880  -25.5820 O.2    94  ASN94      -0.2867
    143  CB        36.4710   49.8380  -28.1310 C.3    94  ASN94       0.1155
    144  CG        36.2160   51.3300  -28.1950 C.2    94  ASN94       0.2627
    145  OD1       36.5770   52.0700  -27.2730 O.2    94  ASN94      -0.2716
    146  ND2       35.5870   51.7820  -29.2750 N.am   94  ASN94      -0.0877
    147  N         33.5360   43.6670  -35.2480 N.3   145  ILE145     -0.1231
    148  CA        32.2760   43.7530  -35.9630 C.3   145  ILE145      0.1692
    149  C         32.2020   44.9800  -36.8590 C.2   145  ILE145      0.2592
    150  O         32.7410   46.0420  -36.5330 O.2   145  ILE145     -0.2718
    151  CB        31.0640   43.7880  -34.9820 C.3   145  ILE145      0.0266
    152  CG1       29.7520   43.8180  -35.7750 C.3   145  ILE145      0.0019
    153  CG2       31.1420   45.0190  -34.0930 C.3   145  ILE145      0.0020
    154  CD1       28.5160   43.7020  -34.9180 C.3   145  ILE145      0.0001
    155  N         31.5360   44.8130  -37.9950 N.am  146  ASP146     -0.1960
    156  CA        31.3250   45.8940  -38.9420 C.3   146  ASP146      0.1840
    157  C         29.8720   45.7950  -39.3820 C.2   146  ASP146      0.2622
    158  O         29.5270   44.9500  -40.2100 O.2   146  ASP146     -0.2715
    159  CB        32.2220   45.7420  -40.1640 C.3   146  ASP146      0.1450
    160  CG        32.1290   46.9350  -41.1020 C.2   146  ASP146      0.3671
    161  OD1       31.0780   47.6140  -41.0940 O.co2 146  ASP146     -0.2456
    162  OD2       33.1000   47.1850  -41.8520 O.co2 146  ASP146     -0.2456
    163  N         29.0210   46.6550  -38.8330 N.am  147  VAL147     -0.1963
    164  CA        27.6070   46.6340  -39.1800 C.3   147  VAL147      0.1727
    165  C         27.3220   46.9100  -40.6590 C.2   147  VAL147      0.2616
    166  O         26.2300   46.6160  -41.1480 O.2   147  VAL147     -0.2715
    167  CB        26.8140   47.6470  -38.3230 C.3   147  VAL147      0.0290
    168  CG1       26.8990   47.2590  -36.8520 C.3   147  VAL147      0.0023
    169  CG2       27.3560   49.0480  -38.5350 C.3   147  VAL147      0.0023
    170  N         28.2940   47.4610  -41.3810 N.am  148  HIS148     -0.1973
    171  CA        28.0740   47.7590  -42.7920 C.3   148  HIS148      0.1656
    172  C         28.2420   46.5460  -43.6980 C.2   148  HIS148      0.2291
    173  O         27.9500   46.6210  -44.8850 O.2   148  HIS148     -0.2864
    174  CB        29.0030   48.8810  -43.2620 C.3   148  HIS148      0.0771
    175  CG        28.8030   50.1730  -42.5380 C.ar  148  HIS148      0.0820
    176  ND1       27.5590   50.7470  -42.3730 N.ar  148  HIS148     -0.2267
    177  CD2       29.6860   51.0100  -41.9400 C.ar  148  HIS148      0.1154
    178  CE1       27.6850   51.8780  -41.7010 C.ar  148  HIS148      0.1986
    179  NE2       28.9640   52.0610  -41.4270 N.ar  148  HIS148     -0.2212
    180  N         23.6630   50.3120  -28.3950 N.3   169  ALA169     -0.1231
    181  CA        23.4840   51.6850  -27.9550 C.3   169  ALA169      0.1694
    182  C         24.4520   52.6320  -28.6360 C.2   169  ALA169      0.2592
    183  O         25.6580   52.4240  -28.6090 O.2   169  ALA169     -0.2718
    184  CB        23.6360   51.7710  -26.4460 C.3   169  ALA169      0.0304
    185  N         23.8960   53.6580  -29.2750 N.am  170  PHE170     -0.1962
    186  CA        24.6760   54.6830  -29.9580 C.3   170  PHE170      0.1771
    187  C         25.6620   54.1800  -31.0000 C.2   170  PHE170      0.2619
    188  O         26.7320   54.7550  -31.1700 O.2   170  PHE170     -0.2715
    189  CB        25.4180   55.5130  -28.9170 C.3   170  PHE170      0.0574
    190  CG        24.5210   56.0920  -27.8790 C.ar  170  PHE170     -0.0200
    191  CD1       24.5240   55.5910  -26.5760 C.ar  170  PHE170     -0.0042
    192  CD2       23.6370   57.1190  -28.2060 C.ar  170  PHE170     -0.0042
    193  CE1       23.6600   56.1020  -25.6160 C.ar  170  PHE170     -0.0003
    194  CE2       22.7670   57.6380  -27.2570 C.ar  170  PHE170     -0.0003
    195  CZ        22.7770   57.1300  -25.9570 C.ar  170  PHE170     -0.0000
    196  N         25.3130   53.1110  -31.7030 N.am  171  CYS171     -0.1968
    197  CA        26.2080   52.5770  -32.7140 C.3   171  CYS171      0.1712
    198  C         25.8050   52.9420  -34.1420 C.2   171  CYS171      0.2296
    199  O         26.4940   53.7120  -34.8120 O.2   171  CYS171     -0.2864
    200  CB        26.3030   51.0590  -32.5940 C.3   171  CYS171      0.0983
    201  SG        27.3480   50.3120  -33.8740 S.3   171  CYS171     -0.0798
    202  N         25.7350   56.5300  -35.2880 N.3   174  ALA174     -0.1231
    203  CA        27.0690   57.0880  -35.1130 C.3   174  ALA174      0.1694
    204  C         28.0970   56.5570  -36.1180 C.2   174  ALA174      0.2591
    205  O         29.2450   57.0080  -36.1350 O.2   174  ALA174     -0.2718
    206  CB        27.5430   56.8300  -33.6940 C.3   174  ALA174      0.0304
    207  N         27.6970   55.6030  -36.9530 N.am  175  VAL175     -0.1980
    208  CA        28.6280   55.0520  -37.9300 C.3   175  VAL175      0.1595
    209  C         28.0320   55.0110  -39.3270 C.2   175  VAL175      0.2287
    210  O         28.6520   54.5160  -40.2580 O.2   175  VAL175     -0.2864
    211  CB        29.0850   53.6200  -37.5400 C.3   175  VAL175      0.0276
    212  CG1       29.5150   53.5980  -36.0890 C.3   175  VAL175      0.0022
    213  CG2       27.9660   52.6190  -37.7810 C.3   175  VAL175      0.0022
    214  N         29.8350   64.2430  -32.2710 N.3   210  TYR210     -0.1241
    215  CA        30.1640   64.0070  -30.8730 C.3   210  TYR210      0.1605
    216  C         31.6780   63.8400  -30.8310 C.2   210  TYR210      0.2264
    217  O         32.2830   63.3820  -31.8090 O.2   210  TYR210     -0.2867
    218  CB        29.4450   62.7550  -30.3340 C.3   210  TYR210      0.0534
    219  CG        30.0150   61.4150  -30.7750 C.ar  210  TYR210     -0.0201
    220  CD1       30.9860   60.7610  -30.0120 C.ar  210  TYR210     -0.0009
    221  CD2       29.5440   60.7770  -31.9220 C.ar  210  TYR210     -0.0009
    222  CE1       31.4690   59.4900  -30.3860 C.ar  210  TYR210      0.0417
    223  CE2       30.0170   59.5160  -32.3050 C.ar  210  TYR210      0.0417
    224  CZ        30.9770   58.8780  -31.5290 C.ar  210  TYR210      0.1957
    225  OH        31.4250   57.6270  -31.8930 O.3   210  TYR210     -0.2866
@<TRIPOS>BOND
     1   173   172    2
     2   172   171    1
     3   174   171    1
     4   174   175    1
     5   171   170    1
     6   175   176   ar
     7   175   177   ar
     8     1     2    1
     9   176   178   ar
    10   177   179   ar
    11   162   160   ar
    12   178   179   ar
    13   170   165   am
    14     7     5    1
    15   166   165    2
    16     2     5    1
    17     2     3    1
    18   160   161   ar
    19   160   159    1
    20     5     6    1
    21   165   164    1
    22     3     4    2
    23   210   209    2
    24   158   157    2
    25   159   156    1
    26   157   156    1
    27   157   163   am
    28   209   208    1
    29   130   128   ar
    30   130   129   ar
    31   164   163    1
    32   164   167    1
    33   128   126   ar
    34   156   155    1
    35   169   167    1
    36   167   168    1
    37   129   127   ar
    38   155   149   am
    39   208   211    1
    40   208   207    1
    41   126   125   ar
    42   213   211    1
    43   211   212    1
    44     8     9    1
    45   207   204   am
    46   127   125   ar
    47   149   150    2
    48   149   148    1
    49   125   124    1
    50    14    16   ar
    51    14    13   ar
    52   205   204    2
    53   204   203    1
    54    16    18   ar
    55   148   147    1
    56   148   151    1
    57     9    12    1
    58     9    10    1
    59    12    13    1
    60   152   151    1
    61   152   154    1
    62    10    11    2
    63    13    15   ar
    64   124   121    1
    65   202   203    1
    66   203   206    1
    67   123   122    2
    68   151   153    1
    69   199   198    2
    70    18    19    1
    71    18    17   ar
    72   121   122    1
    73   121   120    1
    74   138   136    1
    75   122   131   am
    76   198   197    1
    77    15    17   ar
    78   201   200    1
    79   120   114   am
    80   131   132    1
    81   136   137    1
    82   136   135    1
    83   115   114    2
    84   132   135    1
    85   132   133    1
    86   197   200    1
    87   197   196    1
    88   114   113    1
    89    20    21    1
    90   223   221   ar
    91   223   224   ar
    92   214   215    1
    93   221   219   ar
    94   225   224    1
    95   217   216    2
    96   133   134    2
    97    24    21    1
    98    24    25    1
    99   196   187   am
   100   224   222   ar
   101   113   112    1
   102   113   116    1
   103    21    22    1
   104    63    64    1
   105   188   187    2
   106    64    65    1
   107   187   186    1
   108   119   117   ar
   109   215   216    1
   110   215   218    1
   111   219   218    1
   112   219   220   ar
   113    26    25   ar
   114    26    28   ar
   115    25    27   ar
   116   117   118   ar
   117   117   116    1
   118   222   220   ar
   119    22    23    2
   120   186   185    1
   121   186   189    1
   122    28    30   ar
   123    65    66    2
   124    65    67   am
   125    27    29   ar
   126   146   144   am
   127   185   182   am
   128    58    57    2
   129    57    56    1
   130   189   190    1
   131    67    68    1
   132   182   183    2
   133   182   181    1
   134    30    29   ar
   135   180   181    1
   136   192   190   ar
   137   192   194   ar
   138   144   143    1
   139   144   145    2
   140    55    56    1
   141   143   140    1
   142   139   140    1
   143    56    59    1
   144   181   184    1
   145   190   191   ar
   146    73    74    1
   147    73    69   am
   148    74    75    1
   149    68    69    1
   150    68    71    1
   151   140   141    1
   152    72    71    1
   153   194   195   ar
   154    39    37   ar
   155    39    41   ar
   156    69    70    2
   157    37    36   ar
   158    61    60   ar
   159   141   142    2
   160    42    41    1
   161    59    60    1
   162   191   193   ar
   163    60    62   ar
   164    41    40   ar
   165    75    76    2
   166    75    77   am
   167   195   193   ar
   168    36    35    1
   169    36    38   ar
   170    83    77    1
   171    83    82    1
   172    35    32    1
   173    40    38   ar
   174    77    78    1
   175    32    31    1
   176    32    33    1
   177   111   109   am
   178    82    81    1
   179    78    81    1
   180    78    79    1
   181   108   109    1
   182   108   107    1
   183   102   101    1
   184   109   110    2
   185    33    34    2
   186    89    88    1
   187    54    53    1
   188    84    79   am
   189    84    85    1
   190    79    80    2
   191   107   104    1
   192    90    88    1
   193    87    86    2
   194    88    85    1
   195    51    53   ar
   196    51    49   ar
   197   101   100   ar
   198   101    99   ar
   199    53    52   ar
   200    85    86    1
   201   100    98   ar
   202   106   105    2
   203   104   105    1
   204   104   103    1
   205    99    97   ar
   206    49    48   ar
   207    52    50   ar
   208    98    96   ar
   209   103    93   am
   210    97    96   ar
   211    48    50   ar
   212    48    47    1
   213    96    95    1
   214    43    44    1
   215    93    94    2
   216    93    92    1
   217    91    92    1
   218    47    44    1
   219    92    95    1
   220    44    45    1
   221    45    46    2
