@<TRIPOS>MOLECULE
tmp/2an4B01.pdb
 140 130 0 0 0
SMALL
GASTEIGER

@<TRIPOS>ATOM
      1  N         35.9060   59.1030  -24.7370 N.3    22  TYR22      -0.1241
      2  CA        34.5030   58.7860  -24.9610 C.3    22  TYR22       0.1605
      3  C         33.8240   58.5160  -23.6300 C.2    22  TYR22       0.2264
      4  O         32.7380   59.0380  -23.3580 O.2    22  TYR22      -0.2867
      5  CB        34.3690   57.5540  -25.8580 C.3    22  TYR22       0.0534
      6  CG        32.9360   57.1940  -26.1330 C.ar   22  TYR22      -0.0201
      7  CD1       32.1340   58.0220  -26.9140 C.ar   22  TYR22      -0.0009
      8  CD2       32.3550   56.0670  -25.5490 C.ar   22  TYR22      -0.0009
      9  CE1       30.7860   57.7450  -27.1060 C.ar   22  TYR22       0.0417
     10  CE2       31.0030   55.7790  -25.7340 C.ar   22  TYR22       0.0417
     11  CZ        30.2250   56.6270  -26.5120 C.ar   22  TYR22       0.1957
     12  OH        28.8830   56.3770  -26.6700 O.3    22  TYR22      -0.2866
     13  N         30.7630   60.8610  -21.9420 N.3    26  ASN26      -0.1225
     14  CA        29.4130   60.3310  -21.8030 C.3    26  ASN26       0.1785
     15  C         29.0700   59.4920  -20.5770 C.2    26  ASN26       0.2597
     16  O         27.8910   59.3080  -20.2670 O.2    26  ASN26      -0.2718
     17  CB        29.0830   59.5380  -23.0670 C.3    26  ASN26       0.1169
     18  CG        29.2560   60.3640  -24.3290 C.2    26  ASN26       0.2627
     19  OD1       28.4490   61.2500  -24.6180 O.2    26  ASN26      -0.2716
     20  ND2       30.3170   60.0870  -25.0800 N.am   26  ASN26      -0.0877
     21  N         30.0750   58.9920  -19.8690 N.am   27  TYR27      -0.1976
     22  CA        29.7820   58.1810  -18.7080 C.3    27  TYR27       0.1639
     23  C         30.3640   58.6590  -17.3820 C.2    27  TYR27       0.2290
     24  O         30.3560   57.9370  -16.3890 O.2    27  TYR27      -0.2864
     25  CB        30.1440   56.7340  -19.0280 C.3    27  TYR27       0.0560
     26  CG        29.3160   56.2500  -20.1960 C.ar   27  TYR27      -0.0198
     27  CD1       29.8490   56.1810  -21.4830 C.ar   27  TYR27      -0.0009
     28  CD2       27.9530   55.9840  -20.0390 C.ar   27  TYR27      -0.0009
     29  CE1       29.0350   55.8730  -22.5920 C.ar   27  TYR27       0.0417
     30  CE2       27.1400   55.6760  -21.1360 C.ar   27  TYR27       0.0417
     31  CZ        27.6870   55.6260  -22.4050 C.ar   27  TYR27       0.1957
     32  OH        26.8740   55.3590  -23.4860 O.3    27  TYR27      -0.2866
     33  N         26.8870   63.7000  -17.1530 N.3    31  ARG31      -0.1245
     34  CA        26.0760   62.6300  -17.7210 C.3    31  ARG31       0.1563
     35  C         26.2360   61.3320  -16.9550 C.2    31  ARG31       0.2260
     36  O         25.3160   60.5140  -16.9090 O.2    31  ARG31      -0.2867
     37  CB        26.4450   62.3950  -19.1830 C.3    31  ARG31       0.0307
     38  CG        26.1700   63.5940  -20.0550 C.3    31  ARG31       0.0489
     39  CD        26.4010   63.3140  -21.5200 C.3    31  ARG31       0.2205
     40  NE        25.9460   64.4490  -22.3150 N.pl3  31  ARG31      -0.0865
     41  CZ        25.9700   64.5070  -23.6410 C.cat  31  ARG31       0.5346
     42  NH1       26.4320   63.4860  -24.3520 N.pl3  31  ARG31       0.1354
     43  NH2       25.5310   65.5980  -24.2530 N.pl3  31  ARG31       0.1354
     44  N         20.1070   61.4020  -18.3020 N.3    40  VAL40      -0.1245
     45  CA        20.0520   60.4110  -19.3710 C.3    40  VAL40       0.1561
     46  C         20.5180   59.0090  -18.9350 C.2    40  VAL40       0.2260
     47  O         20.0080   57.9980  -19.4280 O.2    40  VAL40      -0.2867
     48  CB        20.8820   60.8950  -20.6030 C.3    40  VAL40       0.0252
     49  CG1       22.3500   61.0590  -20.2210 C.3    40  VAL40       0.0019
     50  CG2       20.7170   59.9310  -21.7630 C.3    40  VAL40       0.0019
     51  N         18.2220   55.6250  -19.3150 N.3    44  LYS44      -0.1245
     52  CA        18.6100   54.4750  -20.1100 C.3    44  LYS44       0.1561
     53  C         18.5430   53.1770  -19.3130 C.2    44  LYS44       0.2260
     54  O         18.0540   52.1650  -19.8060 O.2    44  LYS44      -0.2867
     55  CB        20.0120   54.6690  -20.6810 C.3    44  LYS44       0.0271
     56  CG        20.0780   55.6230  -21.8640 C.3    44  LYS44       0.0035
     57  CD        21.4930   55.6940  -22.4540 C.3    44  LYS44       0.0206
     58  CE        22.5080   56.3000  -21.4760 C.3    44  LYS44       0.1093
     59  NZ        23.8690   56.4060  -22.0890 N.3    44  LYS44      -0.1314
     60  N         23.8620   53.3870  -29.4140 N.3   169  PHE169     -0.1241
     61  CA        24.6570   54.4000  -30.0970 C.3   169  PHE169      0.1605
     62  C         25.6420   53.8660  -31.1170 C.2   169  PHE169      0.2264
     63  O         26.7420   54.3950  -31.2600 O.2   169  PHE169     -0.2867
     64  CB        25.4100   55.2370  -29.0730 C.3   169  PHE169      0.0534
     65  CG        24.5310   55.8420  -28.0370 C.ar  169  PHE169     -0.0203
     66  CD1       24.5270   55.3470  -26.7360 C.ar  169  PHE169     -0.0042
     67  CD2       23.6790   56.8890  -28.3590 C.ar  169  PHE169     -0.0042
     68  CE1       23.6880   55.8840  -25.7710 C.ar  169  PHE169     -0.0003
     69  CE2       22.8290   57.4400  -27.3960 C.ar  169  PHE169     -0.0003
     70  CZ        22.8350   56.9340  -26.1000 C.ar  169  PHE169     -0.0000
     71  N         23.5570   54.6350  -35.9070 N.3   172  GLU172     -0.1231
     72  CA        23.5460   56.0100  -36.3820 C.3   172  GLU172      0.1699
     73  C         24.9160   56.6840  -36.2870 C.2   172  GLU172      0.2592
     74  O         25.1930   57.6550  -37.0070 O.2   172  GLU172     -0.2718
     75  CB        22.5140   56.8370  -35.6080 C.3   172  GLU172      0.0402
     76  CG        22.9700   57.2870  -34.2370 C.3   172  GLU172      0.1161
     77  CD        22.7870   56.2330  -33.1590 C.2   172  GLU172      0.3649
     78  OE1       22.4500   55.0750  -33.4910 O.co2 172  GLU172     -0.2457
     79  OE2       22.9840   56.5730  -31.9730 O.co2 172  GLU172     -0.2457
     80  N         25.7660   56.1600  -35.4060 N.am  173  ALA173     -0.1980
     81  CA        27.0970   56.7110  -35.1910 C.3   173  ALA173      0.1597
     82  C         28.1210   56.2370  -36.2160 C.2   173  ALA173      0.2287
     83  O         29.2430   56.7410  -36.2570 O.2   173  ALA173     -0.2864
     84  CB        27.5730   56.3670  -33.7830 C.3   173  ALA173      0.0319
     85  N         21.0740   58.0240  -30.5080 N.3   203  ALA203     -0.1245
     86  CA        20.9830   59.4800  -30.4540 C.3   203  ALA203      0.1562
     87  C         19.9680   60.0050  -31.4670 C.2   203  ALA203      0.2260
     88  O         19.9630   59.5940  -32.6230 O.2   203  ALA203     -0.2867
     89  CB        22.3410   60.0840  -30.7330 C.3   203  ALA203      0.0290
     90  N         21.2540   63.9080  -33.9990 N.3   206  GLU206     -0.1245
     91  CA        22.6430   64.2280  -33.6780 C.3   206  GLU206      0.1567
     92  C         23.4720   64.1630  -34.9610 C.2   206  GLU206      0.2260
     93  O         23.2540   63.2880  -35.8030 O.2   206  GLU206     -0.2867
     94  CB        23.2000   63.2440  -32.6430 C.3   206  GLU206      0.0388
     95  CG        24.6410   63.5150  -32.2560 C.3   206  GLU206      0.1160
     96  CD        25.2100   62.4540  -31.3300 C.2   206  GLU206      0.3649
     97  OE1       25.4720   62.7680  -30.1470 O.co2 206  GLU206     -0.2457
     98  OE2       25.3960   61.3070  -31.7920 O.co2 206  GLU206     -0.2457
     99  N         29.8120   64.0620  -32.5210 N.3   209  TYR209     -0.1241
    100  CA        30.1640   63.8220  -31.1260 C.3   209  TYR209      0.1605
    101  C         31.6770   63.6110  -31.0730 C.2   209  TYR209      0.2264
    102  O         32.2900   63.1860  -32.0610 O.2   209  TYR209     -0.2867
    103  CB        29.4050   62.6080  -30.5600 C.3   209  TYR209      0.0534
    104  CG        29.9100   61.2380  -30.9800 C.ar  209  TYR209     -0.0201
    105  CD1       30.8660   60.5570  -30.2210 C.ar  209  TYR209     -0.0009
    106  CD2       29.4110   60.6110  -32.1200 C.ar  209  TYR209     -0.0009
    107  CE1       31.3070   59.2810  -30.5920 C.ar  209  TYR209      0.0417
    108  CE2       29.8440   59.3390  -32.4980 C.ar  209  TYR209      0.0417
    109  CZ        30.7900   58.6800  -31.7300 C.ar  209  TYR209      0.1957
    110  OH        31.2080   57.4230  -32.1080 O.3   209  TYR209     -0.2866
    111  N         17.1750   65.6010  -24.2840 N.3   245  MET245     -0.1245
    112  CA        18.3770   66.0080  -23.5720 C.3   245  MET245      0.1570
    113  C         18.2230   67.3920  -22.9580 C.2   245  MET245      0.2261
    114  O         18.0210   68.3750  -23.6590 O.2   245  MET245     -0.2867
    115  CB        19.5800   65.9800  -24.5300 C.3   245  MET245      0.0387
    116  CG        20.9470   65.9650  -23.8450 C.3   245  MET245      0.0595
    117  SD        21.2440   64.4770  -22.8360 S.3   245  MET245     -0.1393
    118  CE        22.0290   63.4050  -24.0120 C.3   245  MET245      0.0692
    119  N         29.0170   66.9350  -28.0870 N.3   254  ASP254     -0.1239
    120  CA        28.1610   66.5720  -29.2240 C.3   254  ASP254      0.1674
    121  C         26.9990   67.5640  -29.3650 C.2   254  ASP254      0.2266
    122  O         26.8910   68.5020  -28.5850 O.2   254  ASP254     -0.2867
    123  CB        27.5800   65.1620  -29.0330 C.3   254  ASP254      0.1410
    124  CG        26.7700   65.0280  -27.7470 C.2   254  ASP254      0.3668
    125  OD1       26.0510   65.9850  -27.3950 O.co2 254  ASP254     -0.2456
    126  OD2       26.8320   63.9610  -27.0940 O.co2 254  ASP254     -0.2456
    127  N         23.7050   66.3380  -29.6250 N.3   256  VAL256     -0.1245
    128  CA        22.5480   65.4690  -29.4480 C.3   256  VAL256      0.1561
    129  C         21.3360   66.2180  -28.8810 C.2   256  VAL256      0.2260
    130  O         21.4690   67.0330  -27.9710 O.2   256  VAL256     -0.2867
    131  CB        22.9060   64.2640  -28.5250 C.3   256  VAL256      0.0252
    132  CG1       23.0880   64.7330  -27.0830 C.3   256  VAL256      0.0019
    133  CG2       21.8360   63.2000  -28.6240 C.3   256  VAL256      0.0019
    134  N         17.4990   61.0750  -26.9880 N.3   259  VAL259     -0.1245
    135  CA        17.8920   59.6790  -27.0450 C.3   259  VAL259      0.1561
    136  C         16.6200   58.8740  -27.1950 C.2   259  VAL259      0.2260
    137  O         15.5880   59.1870  -26.5870 O.2   259  VAL259     -0.2867
    138  CB        18.6370   59.2440  -25.7450 C.3   259  VAL259      0.0252
    139  CG1       18.8790   57.7280  -25.7390 C.3   259  VAL259      0.0019
    140  CG2       19.9530   59.9990  -25.6330 C.3   259  VAL259      0.0019
@<TRIPOS>BOND
     1    74    73    2
     2    72    73    1
     3    72    71    1
     4    72    75    1
     5    73    80   am
     6    83    82    2
     7    82    81    1
     8    93    92    2
     9    75    76    1
    10    80    81    1
    11    81    84    1
    12    92    91    1
    13    76    77    1
    14    90    91    1
    15    91    94    1
    16    78    77   ar
    17    77    79   ar
    18    94    95    1
    19    88    87    2
    20    99   100    1
    21   108   106   ar
    22   108   109   ar
    23    95    96    1
    24   106   104   ar
    25   110   109    1
    26   102   101    2
    27    98    96   ar
    28   109   107   ar
    29    87    86    1
    30    96    97   ar
    31    63    62    2
    32   100   101    1
    33   100   103    1
    34    62    61    1
    35   104   103    1
    36   104   105   ar
    37    89    86    1
    38   107   105   ar
    39    85    86    1
    40    61    60    1
    41    61    64    1
    42   127   128    1
    43   128   129    1
    44   128   131    1
    45   121   120    1
    46   121   122    2
    47   120   123    1
    48   120   119    1
    49    64    65    1
    50   123   124    1
    51   129   130    2
    52   133   131    1
    53   131   132    1
    54    67    65   ar
    55    67    69   ar
    56    65    66   ar
    57   124   125   ar
    58   124   126   ar
    59    69    70   ar
    60   136   135    1
    61   136   137    2
    62     9     7   ar
    63     9    11   ar
    64   135   134    1
    65   135   138    1
    66     7     6   ar
    67    66    68   ar
    68    12    11    1
    69    11    10   ar
    70     6     5    1
    71     6     8   ar
    72    70    68   ar
    73     5     2    1
    74   138   139    1
    75   138   140    1
    76    10     8   ar
    77    20    18   am
    78     2     1    1
    79     2     3    1
    80    19    18    2
    81   115   116    1
    82   115   112    1
    83    42    41    1
    84    18    17    1
    85   111   112    1
    86    43    41    1
    87   118   117    1
    88   116   117    1
    89   114   113    2
    90    41    40    2
    91     3     4    2
    92   112   113    1
    93    32    31    1
    94    17    14    1
    95    29    31   ar
    96    29    27   ar
    97    57    56    1
    98    57    58    1
    99    31    30   ar
   100    40    39    1
   101    59    58    1
   102    13    14    1
   103    56    55    1
   104    14    15    1
   105    50    48    1
   106    39    38    1
   107    27    26   ar
   108    30    28   ar
   109    55    52    1
   110    48    49    1
   111    48    45    1
   112    15    16    2
   113    15    21   am
   114    26    28   ar
   115    26    25    1
   116    52    51    1
   117    52    53    1
   118    38    37    1
   119    21    22    1
   120    54    53    2
   121    47    46    2
   122    45    46    1
   123    45    44    1
   124    37    34    1
   125    25    22    1
   126    22    23    1
   127    34    33    1
   128    34    35    1
   129    23    24    2
   130    35    36    2
