@<TRIPOS>MOLECULE
tmp/2an9B00.pdb
 147 135 0 0 0
SMALL
GASTEIGER

@<TRIPOS>ATOM
      1  N         13.7990   18.8330   33.1600 N.3    10  ALA10      -0.1245
      2  CA        12.6660   19.6540   32.7170 C.3    10  ALA10       0.1562
      3  C         12.2770   20.6140   33.8290 C.2    10  ALA10       0.2260
      4  O         12.4290   20.3030   34.9780 O.2    10  ALA10      -0.2867
      5  CB        11.4710   18.7780   32.3720 C.3    10  ALA10       0.0290
      6  N          9.4430   22.1370   36.3080 N.3    12  SER12      -0.1217
      7  CA         8.1280   21.7230   36.7690 C.3    12  SER12       0.1889
      8  C          7.0790   22.1080   35.7040 C.2    12  SER12       0.2288
      9  O          7.1970   23.1860   35.0650 O.2    12  SER12      -0.2866
     10  CB         7.7470   22.4330   38.0790 C.3    12  SER12       0.2089
     11  OG         8.5080   21.9270   39.1620 O.3    12  SER12      -0.2183
     12  N          7.3630   15.5670   33.4950 N.3    16  LYS16      -0.1231
     13  CA         8.5180   14.6560   33.4290 C.3    16  LYS16       0.1693
     14  C          8.4220   13.4570   34.3550 C.2    16  LYS16       0.2592
     15  O          8.7290   12.3340   33.9630 O.2    16  LYS16      -0.2718
     16  CB         9.8140   15.4280   33.7050 C.3    16  LYS16       0.0285
     17  CG        10.9110   14.6590   34.4340 C.3    16  LYS16       0.0035
     18  CD        12.1740   15.5180   34.5770 C.3    16  LYS16       0.0206
     19  CE        12.0700   16.5590   35.6510 C.3    16  LYS16       0.1093
     20  NZ        11.4690   16.1030   36.9420 N.3    16  LYS16      -0.1314
     21  N          8.0280   13.6850   35.5920 N.am   17  SER17      -0.1952
     22  CA         7.8160   12.5860   36.5330 C.3    17  SER17       0.1924
     23  C          6.7900   11.5630   36.0450 C.2    17  SER17       0.2314
     24  O          6.9830   10.3750   36.1860 O.2    17  SER17      -0.2863
     25  CB         7.3870   13.1250   37.8950 C.3    17  SER17       0.2116
     26  OG         6.1320   13.7980   37.7900 O.3    17  SER17      -0.2180
     27  N         17.4390    9.1020   44.4070 N.3    37  SER37      -0.1217
     28  CA        18.2940   10.2000   44.8900 C.3    37  SER37       0.1889
     29  C         18.2490   10.3290   46.3970 C.2    37  SER37       0.2288
     30  O         17.3270    9.8280   47.0390 O.2    37  SER37      -0.2866
     31  CB        17.8440   11.5370   44.2840 C.3    37  SER37       0.2089
     32  OG        17.7600   11.4760   42.8510 O.3    37  SER37      -0.2183
     33  N         14.5240   17.3640   51.5280 N.3    41  ARG41      -0.1245
     34  CA        13.1160   17.7870   51.5220 C.3    41  ARG41       0.1563
     35  C         12.1790   16.7940   52.2340 C.2    41  ARG41       0.2260
     36  O         12.4550   15.6060   52.3160 O.2    41  ARG41      -0.2867
     37  CB        12.6650   18.0940   50.0810 C.3    41  ARG41       0.0307
     38  CG        12.0990   16.9450   49.2660 C.3    41  ARG41       0.0489
     39  CD        11.0280   17.4270   48.2780 C.3    41  ARG41       0.2205
     40  NE        10.7010   16.4430   47.2660 N.pl3  41  ARG41      -0.0865
     41  CZ         9.8660   15.4180   47.4390 C.cat  41  ARG41       0.5346
     42  NH1        9.2860   15.1880   48.6150 N.pl3  41  ARG41       0.1354
     43  NH2        9.6250   14.5990   46.4220 N.pl3  41  ARG41       0.1354
     44  N          6.4680   13.7480   50.7740 N.3    44  ARG44      -0.1245
     45  CA         5.0710   14.0870   50.5370 C.3    44  ARG44       0.1563
     46  C          4.2040   12.9200   50.9870 C.2    44  ARG44       0.2260
     47  O          4.7030   11.8220   51.2120 O.2    44  ARG44      -0.2867
     48  CB         4.8100   14.3350   49.0530 C.3    44  ARG44       0.0307
     49  CG         5.5420   15.5100   48.4430 C.3    44  ARG44       0.0489
     50  CD         5.8590   15.2880   46.9680 C.3    44  ARG44       0.2205
     51  NE         6.4460   16.4700   46.3460 N.pl3  44  ARG44      -0.0865
     52  CZ         6.6590   16.6110   45.0440 C.cat  44  ARG44       0.5346
     53  NH1        6.3400   15.6470   44.1810 N.pl3  44  ARG44       0.1354
     54  NH2        7.1960   17.7340   44.5970 N.pl3  44  ARG44       0.1354
     55  N         12.8230    8.5080   47.1260 N.3    53  TYR53      -0.1241
     56  CA        14.0430    9.0880   47.6930 C.3    53  TYR53       0.1605
     57  C         14.5200    8.3500   48.9540 C.2    53  TYR53       0.2264
     58  O         13.7830    7.6240   49.5960 O.2    53  TYR53      -0.2867
     59  CB        13.8600   10.5770   48.0560 C.3    53  TYR53       0.0534
     60  CG        13.6210   11.4870   46.8770 C.ar   53  TYR53      -0.0201
     61  CD1       14.6600   12.1740   46.2700 C.ar   53  TYR53      -0.0009
     62  CD2       12.3460   11.6550   46.3640 C.ar   53  TYR53      -0.0009
     63  CE1       14.4230   13.0170   45.1770 C.ar   53  TYR53       0.0417
     64  CE2       12.0970   12.4850   45.2770 C.ar   53  TYR53       0.0417
     65  CZ        13.1310   13.1520   44.6820 C.ar   53  TYR53       0.1957
     66  OH        12.8500   13.9350   43.5990 O.3    53  TYR53      -0.2866
     67  N         26.8920   13.3000   41.8520 N.3    72  GLU72      -0.1245
     68  CA        26.4530   14.6950   41.6840 C.3    72  GLU72       0.1567
     69  C         25.5510   15.1020   42.8420 C.2    72  GLU72       0.2260
     70  O         24.8120   14.2840   43.3890 O.2    72  GLU72      -0.2867
     71  CB        25.6910   14.9080   40.3610 C.3    72  GLU72       0.0388
     72  CG        24.3770   14.1340   40.2130 C.3    72  GLU72       0.1160
     73  CD        23.1890   14.8080   40.9210 C.2    72  GLU72       0.3649
     74  OE1       23.2570   16.0190   41.1700 O.co2  72  GLU72      -0.2457
     75  OE2       22.1990   14.1120   41.2570 O.co2  72  GLU72      -0.2457
     76  N         23.3930   18.9760   44.4100 N.3    74  ALA74      -0.1245
     77  CA        23.0250   20.3590   44.0970 C.3    74  ALA74       0.1562
     78  C         21.9300   20.8170   45.0590 C.2    74  ALA74       0.2260
     79  O         21.2640   19.9860   45.6890 O.2    74  ALA74      -0.2867
     80  CB        22.5110   20.4510   42.6600 C.3    74  ALA74       0.0290
     81  N         18.3170   22.6940   44.9260 N.3    76  VAL76      -0.1245
     82  CA        17.2040   23.0550   44.0330 C.3    76  VAL76       0.1561
     83  C         15.9870   23.5040   44.8350 C.2    76  VAL76       0.2260
     84  O         15.4810   22.7630   45.6760 O.2    76  VAL76      -0.2867
     85  CB        16.8100   21.8560   43.1260 C.3    76  VAL76       0.0252
     86  CG1       16.0140   22.3630   41.9090 C.3    76  VAL76       0.0019
     87  CG2       18.0580   21.0580   42.6840 C.3    76  VAL76       0.0019
     88  N         19.6610   17.8150   46.8930 N.3    81  TYR81      -0.1227
     89  CA        19.4120   16.5600   46.1920 C.3    81  TYR81       0.1736
     90  C         20.7290   15.9910   45.6450 C.2    81  TYR81       0.2596
     91  O         21.6210   16.7440   45.2500 O.2    81  TYR81      -0.2718
     92  CB        18.5240   16.8270   44.9950 C.3    81  TYR81       0.0548
     93  CG        17.1350   17.3450   45.2950 C.ar   81  TYR81      -0.0200
     94  CD1       16.9140   18.7030   45.5250 C.ar   81  TYR81      -0.0009
     95  CD2       16.0260   16.4950   45.2560 C.ar   81  TYR81      -0.0009
     96  CE1       15.6030   19.2010   45.7620 C.ar   81  TYR81       0.0417
     97  CE2       14.7410   16.9780   45.4980 C.ar   81  TYR81       0.0417
     98  CZ        14.5240   18.3280   45.7540 C.ar   81  TYR81       0.1957
     99  OH        13.2590   18.8050   46.0100 O.3    81  TYR81      -0.2866
    100  N         20.8400   14.6730   45.5690 N.am   82  GLY82      -0.1942
    101  CA        22.0300   14.0570   45.0450 C.3    82  GLY82       0.2014
    102  C         21.8790   12.5910   44.7020 C.2    82  GLY82       0.2639
    103  O         20.9910   11.9030   45.1950 O.2    82  GLY82      -0.2714
    104  N         22.7940   12.1170   43.8600 N.am   83  THR83      -0.1950
    105  CA        22.8120   10.7420   43.3810 C.3    83  THR83       0.1897
    106  C         24.0390   10.0710   43.9790 C.2    83  THR83       0.2313
    107  O         25.1440   10.4680   43.6460 O.2    83  THR83      -0.2863
    108  CB        23.0100   10.8090   41.8830 C.3    83  THR83       0.1794
    109  OG1       21.8380   11.3350   41.2600 O.3    83  THR83      -0.2208
    110  CG2       23.2120    9.4310   41.2550 C.3    83  THR83       0.0378
    111  N         16.5290   11.3370   36.9970 N.3   101  ASP101     -0.1225
    112  CA        15.6240   12.4850   37.0320 C.3   101  ASP101      0.1805
    113  C         16.2470   13.5790   37.9500 C.2   101  ASP101      0.2598
    114  O         16.0630   13.5670   39.1720 O.2   101  ASP101     -0.2718
    115  CB        14.2660   11.9860   37.5010 C.3   101  ASP101      0.1424
    116  CG        13.2490   13.0640   37.6910 C.2   101  ASP101      0.3668
    117  OD1       13.4570   14.2380   37.3460 O.co2 101  ASP101     -0.2456
    118  OD2       12.1620   12.7990   38.1980 O.co2 101  ASP101     -0.2456
    119  N         16.9940   14.4910   37.3170 N.am  102  ILE102     -0.1966
    120  CA        17.7750   15.5280   37.9970 C.3   102  ILE102      0.1727
    121  C         17.7480   16.8640   37.2600 C.2   102  ILE102      0.2616
    122  O         17.4250   16.9210   36.0690 O.2   102  ILE102     -0.2715
    123  CB        19.2560   15.0910   38.1330 C.3   102  ILE102      0.0290
    124  CG1       19.9760   15.0810   36.7970 C.3   102  ILE102      0.0022
    125  CG2       19.3780   13.7280   38.8050 C.3   102  ILE102      0.0023
    126  CD1       21.4000   14.4790   36.9020 C.3   102  ILE102      0.0001
    127  N         18.1340   17.9360   37.9680 N.am  103  ASP103     -0.1971
    128  CA        18.0930   19.2710   37.3860 C.3   103  ASP103      0.1709
    129  C         19.3000   19.4960   36.4960 C.2   103  ASP103      0.2293
    130  O         20.1820   18.6430   36.4290 O.2   103  ASP103     -0.2864
    131  CB        17.9910   20.3390   38.4880 C.3   103  ASP103      0.1436
    132  CG        19.3520   20.6910   39.0990 C.2   103  ASP103      0.3671
    133  OD1       20.1610   19.7720   39.3480 O.co2 103  ASP103     -0.2456
    134  OD2       19.7010   21.8670   39.3760 O.co2 103  ASP103     -0.2456
    135  N         22.8110   19.0510   38.0830 N.3   106  GLY106     -0.1225
    136  CA        23.2630   17.6870   38.2980 C.3   106  GLY106      0.1811
    137  C         23.6900   17.1000   36.9800 C.2   106  GLY106      0.2280
    138  O         24.6220   16.3110   36.9160 O.2   106  GLY106     -0.2866
    139  N         15.1490   26.9780   34.5600 N.3   155  GLU155     -0.1245
    140  CA        15.4820   25.6270   34.1630 C.3   155  GLU155      0.1567
    141  C         15.6030   25.5690   32.6310 C.2   155  GLU155      0.2260
    142  O         16.5540   24.9600   32.1170 O.2   155  GLU155     -0.2867
    143  CB        14.4360   24.5880   34.6140 C.3   155  GLU155      0.0388
    144  CG        14.5740   24.0360   36.0200 C.3   155  GLU155      0.1160
    145  CD        15.7310   23.0660   36.2530 C.2   155  GLU155      0.3649
    146  OE1       16.0160   22.0730   35.4950 O.co2 155  GLU155     -0.2457
    147  OE2       16.3620   23.2970   37.2950 O.co2 155  GLU155     -0.2457
@<TRIPOS>BOND
     1   142   141    2
     2     5     2    1
     3   141   140    1
     4     2     1    1
     5     2     3    1
     6    13    12    1
     7    13    16    1
     8    13    14    1
     9    16    17    1
    10     3     4    2
    11    15    14    2
    12   140   139    1
    13   140   143    1
    14    14    21   am
    15    17    18    1
    16    18    19    1
    17   143   144    1
    18     9     8    2
    19   146   145   ar
    20    21    22    1
    21    19    20    1
    22     8     7    1
    23   144   145    1
    24    23    24    2
    25    23    22    1
    26   122   121    2
    27   145   147   ar
    28     6     7    1
    29   130   129    2
    30   129   128    1
    31    22    25    1
    32     7    10    1
    33   124   126    1
    34   124   123    1
    35   138   137    2
    36   137   136    1
    37   111   112    1
    38   112   115    1
    39   112   113    1
    40   121   127   am
    41   121   120    1
    42   119   113   am
    43   119   120    1
    44   117   116   ar
    45   128   127    1
    46   128   131    1
    47   115   116    1
    48   116   118   ar
    49    26    25    1
    50   113   114    2
    51   120   123    1
    52    10    11    1
    53   135   136    1
    54   123   125    1
    55   131   132    1
    56   132   133   ar
    57   132   134   ar
    58    72    71    1
    59    72    73    1
    60    71    68    1
    61    73    74   ar
    62    73    75   ar
    63   110   108    1
    64   109   108    1
    65    68    67    1
    66    68    69    1
    67   108   105    1
    68    86    85    1
    69    80    77    1
    70    87    85    1
    71    69    70    2
    72    32    31    1
    73    85    82    1
    74   105   104    1
    75   105   106    1
    76    66    65    1
    77   107   106    2
    78   104   102   am
    79    82    83    1
    80    82    81    1
    81    77    76    1
    82    77    78    1
    83    53    52    1
    84    31    28    1
    85    27    28    1
    86    54    52    1
    87    65    63   ar
    88    65    64   ar
    89   102   101    1
    90   102   103    2
    91    83    84    2
    92    28    29    1
    93    92    93    1
    94    92    89    1
    95    52    51    2
    96   101   100    1
    97    78    79    2
    98    63    61   ar
    99    91    90    2
   100    95    93   ar
   101    95    97   ar
   102    64    62   ar
   103    93    94   ar
   104    97    98   ar
   105    94    96   ar
   106   100    90   am
   107    90    89    1
   108    98    96   ar
   109    98    99    1
   110    89    88    1
   111    61    60   ar
   112    51    50    1
   113    62    60   ar
   114    29    30    2
   115    43    41    1
   116    60    59    1
   117    50    49    1
   118    55    56    1
   119    40    41    2
   120    40    39    1
   121    41    42    1
   122    56    59    1
   123    56    57    1
   124    39    38    1
   125    49    48    1
   126    57    58    2
   127    48    45    1
   128    38    37    1
   129    37    34    1
   130    45    44    1
   131    45    46    1
   132    46    47    2
   133    34    33    1
   134    34    35    1
   135    35    36    2
