@<TRIPOS>MOLECULE
tmp/2anbA00.pdb
 174 161 0 0 0
SMALL
GASTEIGER

@<TRIPOS>ATOM
      1  N         33.9990   17.5320   66.1690 N.3    10  ALA10      -0.1245
      2  CA        34.7050   16.3790   65.6320 C.3    10  ALA10       0.1562
      3  C         34.7620   15.2230   66.6290 C.2    10  ALA10       0.2260
      4  O         34.7790   15.4410   67.8430 O.2    10  ALA10      -0.2867
      5  CB        36.1310   16.7700   65.2170 C.3    10  ALA10       0.0290
      6  N         36.4500   12.8290   69.0390 N.3    12  SER12      -0.1217
      7  CA        37.6160   13.1320   69.8650 C.3    12  SER12       0.1889
      8  C         38.8630   12.5770   69.2050 C.2    12  SER12       0.2288
      9  O         38.8250   11.4790   68.6470 O.2    12  SER12      -0.2866
     10  CB        37.4660   12.5390   71.2660 C.3    12  SER12       0.2089
     11  OG        38.1000   13.3750   72.2080 O.3    12  SER12      -0.2183
     12  N         40.7500   18.8070   66.4620 N.3    16  LYS16      -0.1245
     13  CA        39.9720   20.0400   66.2870 C.3    16  LYS16       0.1561
     14  C         40.4100   21.1430   67.2470 C.2    16  LYS16       0.2260
     15  O         40.6390   22.2710   66.8220 O.2    16  LYS16      -0.2867
     16  CB        38.4630   19.7620   66.3570 C.3    16  LYS16       0.0271
     17  CG        37.6580   20.5080   67.4210 C.3    16  LYS16       0.0035
     18  CD        36.1800   20.0100   67.4570 C.3    16  LYS16       0.0206
     19  CE        35.8430   19.0650   68.6430 C.3    16  LYS16       0.1093
     20  NZ        36.8050   19.0960   69.8060 N.3    16  LYS16      -0.1314
     21  N         34.4350   26.9970   77.8740 N.3    37  SER37      -0.1217
     22  CA        33.2750   26.2610   78.3760 C.3    37  SER37       0.1889
     23  C         33.3950   25.9230   79.8700 C.2    37  SER37       0.2288
     24  O         34.4900   25.9280   80.4210 O.2    37  SER37      -0.2866
     25  CB        33.0980   24.9700   77.5620 C.3    37  SER37       0.2089
     26  OG        32.6510   25.2490   76.2440 O.3    37  SER37      -0.2183
     27  N         33.9640   17.3860   84.0790 N.3    41  ARG41      -0.1245
     28  CA        35.0870   16.4610   83.9040 C.3    41  ARG41       0.1563
     29  C         36.3450   16.9600   84.6160 C.2    41  ARG41       0.2260
     30  O         36.5300   18.1650   84.8010 O.2    41  ARG41      -0.2867
     31  CB        35.3520   16.1690   82.4080 C.3    41  ARG41       0.0307
     32  CG        36.5900   16.8440   81.7960 C.3    41  ARG41       0.0489
     33  CD        37.1980   16.1030   80.6000 C.3    41  ARG41       0.2205
     34  NE        37.8450   17.0200   79.6630 N.pl3  41  ARG41      -0.0865
     35  CZ        38.9840   17.6660   79.9010 C.cat  41  ARG41       0.5346
     36  NH1       39.6300   17.5100   81.0500 N.pl3  41  ARG41       0.1354
     37  NH2       39.4830   18.4850   78.9850 N.pl3  41  ARG41       0.1354
     38  N         42.7910   17.3380   83.1220 N.3    44  ARG44      -0.1245
     39  CA        43.9780   16.5810   82.7110 C.3    44  ARG44       0.1563
     40  C         45.2510   17.2420   83.2730 C.2    44  ARG44       0.2260
     41  O         45.1800   18.3610   83.7970 O.2    44  ARG44      -0.2867
     42  CB        44.0600   16.5180   81.1760 C.3    44  ARG44       0.0307
     43  CG        42.8420   15.8990   80.4820 C.3    44  ARG44       0.0489
     44  CD        43.0100   15.7670   78.9740 C.3    44  ARG44       0.2205
     45  NE        41.7350   15.6790   78.2540 N.pl3  44  ARG44      -0.0865
     46  CZ        41.5480   16.0220   76.9740 C.cat  44  ARG44       0.5346
     47  NH1       42.5470   16.4950   76.2320 N.pl3  44  ARG44       0.1354
     48  NH2       40.3470   15.8910   76.4250 N.pl3  44  ARG44       0.1354
     49  N         39.1750   25.4570   80.1480 N.3    53  TYR53      -0.1241
     50  CA        37.8170   25.2700   80.6640 C.3    53  TYR53       0.1605
     51  C         37.6080   25.9870   81.9980 C.2    53  TYR53       0.2264
     52  O         38.5470   26.5080   82.5980 O.2    53  TYR53      -0.2867
     53  CB        37.5450   23.7840   80.9040 C.3    53  TYR53       0.0534
     54  CG        37.2510   22.9780   79.6710 C.ar   53  TYR53      -0.0201
     55  CD1       35.9630   22.9170   79.1460 C.ar   53  TYR53      -0.0009
     56  CD2       38.2560   22.2540   79.0410 C.ar   53  TYR53      -0.0009
     57  CE1       35.6900   22.1660   78.0160 C.ar   53  TYR53       0.0417
     58  CE2       37.9980   21.5030   77.9090 C.ar   53  TYR53       0.0417
     59  CZ        36.7190   21.4590   77.3970 C.ar   53  TYR53       0.1957
     60  OH        36.4680   20.7090   76.2720 O.3    53  TYR53      -0.2866
     61  N         24.1140   26.8410   75.2660 N.3    72  GLU72      -0.1245
     62  CA        23.9410   25.4090   75.0480 C.3    72  GLU72       0.1567
     63  C         24.6660   24.5870   76.1130 C.2    72  GLU72       0.2260
     64  O         25.6510   25.0350   76.7060 O.2    72  GLU72      -0.2867
     65  CB        24.4410   25.0090   73.6640 C.3    72  GLU72       0.0388
     66  CG        25.9400   25.1610   73.4600 C.3    72  GLU72       0.1160
     67  CD        26.7590   24.0310   74.0650 C.2    72  GLU72       0.3649
     68  OE1       26.3280   22.8550   73.9830 O.co2  72  GLU72      -0.2457
     69  OE2       27.8430   24.3290   74.6220 O.co2  72  GLU72      -0.2457
     70  N         25.1860   20.0270   77.2080 N.3    74  ALA74      -0.1245
     71  CA        24.8900   18.6340   76.8720 C.3    74  ALA74       0.1562
     72  C         25.7170   17.6210   77.6680 C.2    74  ALA74       0.2260
     73  O         26.6650   17.9830   78.3650 O.2    74  ALA74      -0.2867
     74  CB        25.0900   18.4070   75.3720 C.3    74  ALA74       0.0290
     75  N         28.2490   14.6560   77.0320 N.3    76  VAL76      -0.1231
     76  CA        29.1110   13.9460   76.0800 C.3    76  VAL76       0.1692
     77  C         30.2180   13.1540   76.7760 C.2    76  VAL76       0.2592
     78  O         30.9260   13.6770   77.6430 O.2    76  VAL76      -0.2718
     79  CB        29.7650   14.9040   75.0620 C.3    76  VAL76       0.0266
     80  CG1       28.7140   15.7610   74.3840 C.3    76  VAL76       0.0020
     81  CG2       30.8020   15.7830   75.7320 C.3    76  VAL76       0.0020
     82  N         30.3740   11.8960   76.3780 N.am   77  PHE77      -0.1976
     83  CA        31.4130   11.0470   76.9380 C.3    77  PHE77       0.1639
     84  C         31.3730   11.0830   78.4740 C.2    77  PHE77       0.2290
     85  O         32.3910   11.2810   79.1320 O.2    77  PHE77      -0.2864
     86  CB        32.7950   11.4690   76.4000 C.3    77  PHE77       0.0560
     87  CG        32.8590   11.5910   74.8860 C.ar   77  PHE77      -0.0200
     88  CD1       33.3600   12.7310   74.2880 C.ar   77  PHE77      -0.0042
     89  CD2       32.4250   10.5580   74.0660 C.ar   77  PHE77      -0.0042
     90  CE1       33.4230   12.8410   72.8920 C.ar   77  PHE77      -0.0003
     91  CE2       32.4760   10.6710   72.6810 C.ar   77  PHE77      -0.0003
     92  CZ        32.9750   11.8090   72.0980 C.ar   77  PHE77      -0.0000
     93  N         29.0900   19.4970   79.8420 N.3    81  TYR81      -0.1227
     94  CA        29.8190   20.6650   79.3250 C.3    81  TYR81       0.1736
     95  C         28.8280   21.7280   78.8720 C.2    81  TYR81       0.2596
     96  O         27.7130   21.4040   78.4810 O.2    81  TYR81      -0.2718
     97  CB        30.6600   20.3090   78.0930 C.3    81  TYR81       0.0548
     98  CG        31.7000   19.2160   78.2440 C.ar   81  TYR81      -0.0200
     99  CD1       31.3340   17.8810   78.2980 C.ar   81  TYR81      -0.0009
    100  CD2       33.0500   19.5220   78.2700 C.ar   81  TYR81      -0.0009
    101  CE1       32.2860   16.8760   78.4070 C.ar   81  TYR81       0.0417
    102  CE2       34.0080   18.5310   78.3740 C.ar   81  TYR81       0.0417
    103  CZ        33.6230   17.2060   78.4430 C.ar   81  TYR81       0.1957
    104  OH        34.5760   16.2180   78.5540 O.3    81  TYR81      -0.2866
    105  N         29.2500   22.9870   78.8550 N.am   82  GLY82      -0.1942
    106  CA        28.3490   24.0790   78.5000 C.3    82  GLY82       0.2014
    107  C         28.9990   25.3810   78.0510 C.2    82  GLY82       0.2639
    108  O         30.1250   25.6980   78.4280 O.2    82  GLY82      -0.2714
    109  N         28.2690   26.1390   77.2420 N.am   83  THR83      -0.1950
    110  CA        28.7200   27.4310   76.7460 C.3    83  THR83       0.1897
    111  C         27.8570   28.4920   77.3960 C.2    83  THR83       0.2313
    112  O         26.6480   28.5080   77.1790 O.2    83  THR83      -0.2863
    113  CB        28.5810   27.4840   75.2090 C.3    83  THR83       0.1794
    114  OG1       29.5360   26.5980   74.6000 O.3    83  THR83      -0.2208
    115  CG2       28.9550   28.8370   74.6780 C.3    83  THR83       0.0378
    116  N         33.9740   25.2690   70.4100 N.3   101  ASP101     -0.1225
    117  CA        34.5220   23.9300   70.3370 C.3   101  ASP101      0.1805
    118  C         33.5030   23.0670   71.0800 C.2   101  ASP101      0.2598
    119  O         33.5870   22.8910   72.2900 O.2   101  ASP101     -0.2718
    120  CB        35.9210   23.9200   70.9840 C.3   101  ASP101      0.1424
    121  CG        36.6090   22.5760   70.9070 C.2   101  ASP101      0.3668
    122  OD1       35.9650   21.5700   70.5360 O.co2 101  ASP101     -0.2456
    123  OD2       37.8040   22.4300   71.2230 O.co2 101  ASP101     -0.2456
    124  N         32.5020   22.5890   70.3450 N.am  102  ILE102     -0.1966
    125  CA        31.3940   21.8210   70.9220 C.3   102  ILE102      0.1727
    126  C         30.9960   20.6270   70.0710 C.2   102  ILE102      0.2616
    127  O         31.3640   20.5260   68.8990 O.2   102  ILE102     -0.2715
    128  CB        30.1390   22.7110   71.1370 C.3   102  ILE102      0.0290
    129  CG1       29.6110   23.2170   69.7920 C.3   102  ILE102      0.0022
    130  CG2       30.4460   23.8660   72.0920 C.3   102  ILE102      0.0023
    131  CD1       28.3090   23.9150   69.9000 C.3   102  ILE102      0.0001
    132  N         30.2050   19.7470   70.6830 N.am  103  ASP103     -0.1971
    133  CA        29.8260   18.4760   70.0890 C.3   103  ASP103      0.1709
    134  C         28.6030   18.6680   69.2140 C.2   103  ASP103      0.2293
    135  O         28.1440   19.7840   69.0330 O.2   103  ASP103     -0.2864
    136  CB        29.5750   17.4390   71.1820 C.3   103  ASP103      0.1436
    137  CG        28.1460   17.4020   71.6290 C.2   103  ASP103      0.3671
    138  OD1       27.6730   18.4440   72.1230 O.co2 103  ASP103     -0.2456
    139  OD2       27.4260   16.3740   71.5340 O.co2 103  ASP103     -0.2456
    140  N         25.4080   20.1190   71.0960 N.3   106  GLY106     -0.1225
    141  CA        25.5720   21.5520   71.2490 C.3   106  GLY106      0.1811
    142  C         25.3600   22.3290   69.9590 C.2   106  GLY106      0.2280
    143  O         24.7230   23.3700   69.9680 O.2   106  GLY106     -0.2866
    144  N         49.0800   11.9850   71.9850 N.3   137  ARG137     -0.1245
    145  CA        49.1520   13.0640   72.9710 C.3   137  ARG137      0.1563
    146  C         48.8930   12.4220   74.3340 C.2   137  ARG137      0.2260
    147  O         47.8650   11.7660   74.5410 O.2   137  ARG137     -0.2867
    148  CB        48.1520   14.2010   72.6900 C.3   137  ARG137      0.0307
    149  CG        46.7900   13.7820   72.1470 C.3   137  ARG137      0.0489
    150  CD        45.8470   14.9390   71.8590 C.3   137  ARG137      0.2205
    151  NE        44.5910   14.8450   72.6130 N.pl3 137  ARG137     -0.0865
    152  CZ        43.3500   14.9040   72.0980 C.cat 137  ARG137      0.5346
    153  NH1       42.2990   14.8020   72.9110 N.pl3 137  ARG137      0.1354
    154  NH2       43.1410   15.0530   70.7850 N.pl3 137  ARG137      0.1354
    155  N         35.6950    6.6120   74.2350 N.3   148  ARG148     -0.1245
    156  CA        35.4690    7.6510   73.2430 C.3   148  ARG148      0.1563
    157  C         35.3620    7.0800   71.8410 C.2   148  ARG148      0.2260
    158  O         34.5910    7.5850   71.0370 O.2   148  ARG148     -0.2867
    159  CB        36.5830    8.6960   73.2960 C.3   148  ARG148      0.0307
    160  CG        36.7340    9.3880   74.6610 C.3   148  ARG148      0.0489
    161  CD        35.9850   10.7030   74.8070 C.3   148  ARG148      0.2205
    162  NE        36.8900   11.8410   74.9780 N.pl3 148  ARG148     -0.0865
    163  CZ        37.0380   12.5540   76.0940 C.cat 148  ARG148      0.5346
    164  NH1       36.3550   12.2800   77.2020 N.pl3 148  ARG148      0.1354
    165  NH2       37.8940   13.5610   76.1040 N.pl3 148  ARG148      0.1354
    166  N         29.4820   10.0220   66.5450 N.3   155  GLU155     -0.1245
    167  CA        29.8520   11.4130   66.4300 C.3   155  GLU155      0.1567
    168  C         29.9350   11.7760   64.9620 C.2   155  GLU155      0.2260
    169  O         29.3000   12.7130   64.5100 O.2   155  GLU155     -0.2867
    170  CB        31.2030   11.6530   67.1000 C.3   155  GLU155      0.0388
    171  CG        31.1670   11.5700   68.6170 C.3   155  GLU155      0.1160
    172  CD        30.5590   12.8020   69.2530 C.2   155  GLU155      0.3649
    173  OE1       29.4710   12.6640   69.8370 O.co2 155  GLU155     -0.2457
    174  OE2       31.1660   13.9070   69.1740 O.co2 155  GLU155     -0.2457
@<TRIPOS>BOND
     1   169   168    2
     2   168   167    1
     3     5     2    1
     4     2     1    1
     5     2     3    1
     6    13    16    1
     7    13    12    1
     8    13    14    1
     9    16    17    1
    10   167   166    1
    11   167   170    1
    12     3     4    2
    13    15    14    2
    14   170   171    1
    15    17    18    1
    16    18    19    1
    17   171   172    1
    18    19    20    1
    19     9     8    2
    20   127   126    2
    21   135   134    2
    22     6     7    1
    23   174   172   ar
    24     8     7    1
    25   134   133    1
    26   172   173   ar
    27   129   131    1
    28   129   128    1
    29     7    10    1
    30   142   143    2
    31   142   141    1
    32   126   132   am
    33   126   125    1
    34   133   132    1
    35   133   136    1
    36   117   116    1
    37   117   120    1
    38   117   118    1
    39   124   125    1
    40   124   118   am
    41   122   121   ar
    42   154   152    1
    43   121   120    1
    44   121   123   ar
    45   125   128    1
    46   158   157    2
    47   118   119    2
    48   140   141    1
    49   128   130    1
    50   136   137    1
    51    10    11    1
    52   139   137   ar
    53   137   138   ar
    54   157   156    1
    55   150   149    1
    56   150   151    1
    57   144   145    1
    58    92    91   ar
    59    92    90   ar
    60   152   151    2
    61   152   153    1
    62   149   148    1
    63    91    89   ar
    64   148   145    1
    65    90    88   ar
    66   145   146    1
    67   156   159    1
    68   156   155    1
    69   159   160    1
    70    66    65    1
    71    66    67    1
    72    65    62    1
    73    68    67   ar
    74    67    69   ar
    75    89    87   ar
    76    88    87   ar
    77   146   147    2
    78    80    79    1
    79   114   113    1
    80   160   161    1
    81   115   113    1
    82   161   162    1
    83    87    86    1
    84   162   163    2
    85    62    61    1
    86    62    63    1
    87    79    81    1
    88    79    76    1
    89   113   110    1
    90    74    71    1
    91    76    77    1
    92    76    75    1
    93   163   165    1
    94   163   164    1
    95    63    64    2
    96    47    46    1
    97    26    25    1
    98    60    59    1
    99    82    77   am
   100    82    83    1
   101    86    83    1
   102    48    46    1
   103   110   109    1
   104   110   111    1
   105    77    78    2
   106    71    70    1
   107    71    72    1
   108    83    84    1
   109    46    45    2
   110   112   111    2
   111   109   107   am
   112    59    58   ar
   113    59    57   ar
   114    25    22    1
   115    72    73    2
   116    21    22    1
   117    58    56   ar
   118    57    55   ar
   119   107   108    2
   120   107   106    1
   121    97    98    1
   122    97    94    1
   123    98   100   ar
   124    98    99   ar
   125    45    44    1
   126   100   102   ar
   127    99   101   ar
   128   102   103   ar
   129    22    23    1
   130   101   103   ar
   131   103   104    1
   132    84    85    2
   133    96    95    2
   134   106   105    1
   135   105    95   am
   136    95    94    1
   137    44    43    1
   138    37    35    1
   139    56    54   ar
   140    55    54   ar
   141    94    93    1
   142    34    35    2
   143    34    33    1
   144    54    53    1
   145    23    24    2
   146    35    36    1
   147    49    50    1
   148    43    42    1
   149    33    32    1
   150    50    53    1
   151    50    51    1
   152    42    39    1
   153    32    31    1
   154    51    52    2
   155    31    28    1
   156    39    38    1
   157    39    40    1
   158    40    41    2
   159    28    27    1
   160    28    29    1
   161    29    30    2
