@<TRIPOS>MOLECULE
tmp/2ankA00.pdb
 235 234 0 0 0
SMALL
GASTEIGER

@<TRIPOS>ATOM
      1  N         22.4540   27.1150   18.4740 N.3    43  HIS43      -0.1241
      2  CA        22.3430   25.7510   17.9690 C.3    43  HIS43       0.1621
      3  C         21.6160   25.6470   16.6370 C.2    43  HIS43       0.2264
      4  O         21.5640   24.5710   16.0380 O.2    43  HIS43      -0.2867
      5  CB        21.6740   24.8180   18.9900 C.3    43  HIS43       0.0745
      6  CG        20.1900   24.9790   19.0950 C.ar   43  HIS43       0.0817
      7  ND1       19.5930   25.8320   20.0000 N.ar   43  HIS43      -0.2268
      8  CD2       19.1810   24.3780   18.4210 C.ar   43  HIS43       0.1154
      9  CE1       18.2800   25.7480   19.8780 C.ar   43  HIS43       0.1986
     10  NE2       18.0040   24.8740   18.9270 N.ar   43  HIS43      -0.2212
     11  N         26.0680   23.0410   15.5410 N.3    47  TYR47      -0.1241
     12  CA        25.8140   21.9120   16.4230 C.3    47  TYR47       0.1605
     13  C         26.5420   20.7000   15.8480 C.2    47  TYR47       0.2264
     14  O         25.9560   19.8730   15.1400 O.2    47  TYR47      -0.2867
     15  CB        24.3140   21.6310   16.5320 C.3    47  TYR47       0.0534
     16  CG        23.9910   20.6820   17.6640 C.ar   47  TYR47      -0.0201
     17  CD1       24.3550   20.9870   18.9780 C.ar   47  TYR47      -0.0009
     18  CD2       23.3660   19.4630   17.4210 C.ar   47  TYR47      -0.0009
     19  CE1       24.1100   20.1010   20.0140 C.ar   47  TYR47       0.0417
     20  CE2       23.1150   18.5680   18.4520 C.ar   47  TYR47       0.0417
     21  CZ        23.4940   18.8940   19.7490 C.ar   47  TYR47       0.1957
     22  OH        23.2760   18.0000   20.7780 O.3    47  TYR47      -0.2866
     23  N         25.5480   16.8860   15.1130 N.3    50  TRP50      -0.1241
     24  CA        24.7570   16.5350   13.9340 C.3    50  TRP50       0.1605
     25  C         25.3990   17.1060   12.6750 C.2    50  TRP50       0.2264
     26  O         24.7430   17.2530   11.6440 O.2    50  TRP50      -0.2867
     27  CB        23.3370   17.0950   14.0400 C.3    50  TRP50       0.0550
     28  CG        22.5310   16.5580   15.1730 C.ar   50  TRP50       0.0003
     29  CD1       22.8280   15.4820   15.9620 C.ar   50  TRP50       0.0946
     30  CD2       21.2590   17.0440   15.6180 C.ar   50  TRP50       0.0152
     31  NE1       21.8160   15.2690   16.8700 N.ar   50  TRP50      -0.2442
     32  CE2       20.8410   16.2140   16.6780 C.ar   50  TRP50       0.0810
     33  CE3       20.4310   18.1000   15.2200 C.ar   50  TRP50       0.0012
     34  CZ2       19.6290   16.4060   17.3450 C.ar   50  TRP50       0.0191
     35  CZ3       19.2260   18.2900   15.8840 C.ar   50  TRP50       0.0001
     36  CH2       18.8380   17.4460   16.9340 C.ar   50  TRP50       0.0015
     37  N         25.9390   19.9460   11.8800 N.3    52  LYS52      -0.1245
     38  CA        25.3320   21.1950   11.4380 C.3    52  LYS52       0.1561
     39  C         26.2640   22.3930   11.6470 C.2    52  LYS52       0.2260
     40  O         26.6670   22.6910   12.7720 O.2    52  LYS52      -0.2867
     41  CB        24.0140   21.4330   12.1740 C.3    52  LYS52       0.0271
     42  CG        23.2840   22.6670   11.6890 C.3    52  LYS52       0.0035
     43  CD        21.8150   22.6480   12.0670 C.3    52  LYS52       0.0206
     44  CE        21.6160   22.7350   13.5600 C.3    52  LYS52       0.1093
     45  NZ        20.1720   22.7550   13.9130 N.3    52  LYS52      -0.1314
     46  N         28.0530   23.7830   23.1680 N.3    92  TRP92      -0.1241
     47  CA        27.2830   22.7240   22.5120 C.3    92  TRP92       0.1605
     48  C         27.6940   21.3270   22.9740 C.2    92  TRP92       0.2264
     49  O         26.9920   20.3500   22.7120 O.2    92  TRP92      -0.2867
     50  CB        27.4400   22.8110   20.9890 C.3    92  TRP92       0.0550
     51  CG        28.8630   22.8450   20.5410 C.ar   92  TRP92       0.0003
     52  CD1       29.6470   23.9530   20.3610 C.ar   92  TRP92       0.0946
     53  CD2       29.6930   21.7170   20.2620 C.ar   92  TRP92       0.0152
     54  NE1       30.9140   23.5800   19.9880 N.ar   92  TRP92      -0.2442
     55  CE2       30.9700   22.2120   19.9180 C.ar   92  TRP92       0.0810
     56  CE3       29.4810   20.3330   20.2670 C.ar   92  TRP92       0.0012
     57  CZ2       32.0350   21.3700   19.5880 C.ar   92  TRP92       0.0191
     58  CZ3       30.5380   19.4990   19.9390 C.ar   92  TRP92       0.0001
     59  CH2       31.7980   20.0210   19.6020 C.ar   92  TRP92       0.0015
     60  N         28.2230   20.3030   26.2730 N.3    94  GLU94      -0.1231
     61  CA        27.5830   19.8660   27.4990 C.3    94  GLU94       0.1699
     62  C         26.0910   20.1270   27.7030 C.2    94  GLU94       0.2592
     63  O         25.2800   19.2070   27.6020 O.2    94  GLU94      -0.2718
     64  CB        28.3630   20.4380   28.6810 C.3    94  GLU94       0.0402
     65  CG        27.8470   19.9960   30.0270 C.3    94  GLU94       0.1161
     66  CD        28.5620   20.6800   31.1800 C.2    94  GLU94       0.3649
     67  OE1       28.1330   20.4810   32.3410 O.co2  94  GLU94      -0.2457
     68  OE2       29.5510   21.4120   30.9230 O.co2  94  GLU94      -0.2457
     69  N         25.7260   21.3740   27.9830 N.am   95  ASN95      -0.1960
     70  CA        24.3330   21.7080   28.2660 C.3    95  ASN95       0.1819
     71  C         23.7440   22.8670   27.4670 C.2    95  ASN95       0.2621
     72  O         22.7140   23.4220   27.8570 O.2    95  ASN95      -0.2715
     73  CB        24.2180   22.0240   29.7550 C.3    95  ASN95       0.1195
     74  CG        25.1860   23.1200   30.1850 C.2    95  ASN95       0.2630
     75  OD1       25.9530   23.6450   29.3700 O.2    95  ASN95      -0.2716
     76  ND2       25.1500   23.4750   31.4610 N.am   95  ASN95      -0.0877
     77  N         24.3980   23.2420   26.3700 N.am   96  LEU96      -0.1977
     78  CA        23.9300   24.3370   25.5230 C.3    96  LEU96       0.1596
     79  C         23.9210   25.6940   26.2420 C.2    96  LEU96       0.2287
     80  O         23.0540   26.5440   26.0050 O.2    96  LEU96      -0.2864
     81  CB        22.5280   24.0220   24.9980 C.3    96  LEU96       0.0297
     82  CG        22.3090   24.1690   23.4940 C.3    96  LEU96       0.0022
     83  CD1       23.3070   23.3160   22.7280 C.3    96  LEU96       0.0001
     84  CD2       20.8790   23.7610   23.1620 C.3    96  LEU96       0.0001
     85  N          5.0370   16.2690   20.0950 N.3   146  GLU146     -0.1245
     86  CA         6.3890   15.7340   20.2470 C.3   146  GLU146      0.1567
     87  C          6.7940   14.8220   19.0930 C.2   146  GLU146      0.2260
     88  O          7.7400   15.1140   18.3570 O.2   146  GLU146     -0.2867
     89  CB         6.5200   14.9640   21.5620 C.3   146  GLU146      0.0388
     90  CG         7.9630   14.6340   21.9040 C.3   146  GLU146      0.1160
     91  CD         8.1110   13.9050   23.2180 C.2   146  GLU146      0.3649
     92  OE1        7.4370   14.2920   24.1950 O.co2 146  GLU146     -0.2457
     93  OE2        8.9130   12.9500   23.2780 O.co2 146  GLU146     -0.2457
     94  N         20.3410   17.3930   33.1340 N.3   172  ILE172     -0.1245
     95  CA        21.1930   18.3810   32.4790 C.3   172  ILE172      0.1561
     96  C         21.5620   19.4940   33.4510 C.2   172  ILE172      0.2260
     97  O         20.6910   20.0660   34.1000 O.2   172  ILE172     -0.2867
     98  CB        20.4740   19.0070   31.2570 C.3   172  ILE172      0.0252
     99  CG1       20.1800   17.9270   30.2130 C.3   172  ILE172      0.0019
    100  CG2       21.3300   20.0960   30.6440 C.3   172  ILE172      0.0019
    101  CD1       21.4280   17.2020   29.7150 C.3   172  ILE172      0.0001
    102  N          3.8070   24.2530   25.3620 N.3   192  ASP192     -0.1225
    103  CA         5.2670   24.2610   25.3380 C.3   192  ASP192      0.1805
    104  C          5.7790   24.5430   23.9220 C.2   192  ASP192      0.2598
    105  O          5.0090   24.5520   22.9600 O.2   192  ASP192     -0.2718
    106  CB         5.7750   22.8850   25.7990 C.3   192  ASP192      0.1424
    107  CG         7.2880   22.8180   25.9380 C.2   192  ASP192      0.3668
    108  OD1        7.8330   21.6940   25.8840 O.co2 192  ASP192     -0.2456
    109  OD2        7.9390   23.8680   26.1190 O.co2 192  ASP192     -0.2456
    110  N          7.0790   24.7900   23.8060 N.am  193  ALA193     -0.1966
    111  CA         7.6970   25.0090   22.5110 C.3   193  ALA193      0.1728
    112  C          8.0340   23.6030   22.0430 C.2   193  ALA193      0.2616
    113  O          7.8360   22.6380   22.7760 O.2   193  ALA193     -0.2715
    114  CB         8.9680   25.8380   22.6480 C.3   193  ALA193      0.0334
    115  N          8.5560   23.4770   20.8360 N.am  194  CYS194     -0.1954
    116  CA         8.8780   22.1600   20.3340 C.3   194  CYS194      0.1843
    117  C          9.8320   22.2520   19.1500 C.2   194  CYS194      0.2625
    118  O         10.2430   23.3490   18.7620 O.2   194  CYS194     -0.2714
    119  CB         7.5730   21.4550   19.9390 C.3   194  CYS194      0.0997
    120  SG         7.6980   19.6500   19.7200 S.3   194  CYS194     -0.0797
    121  N         10.1930   21.0960   18.5970 N.am  195  GLU195     -0.1977
    122  CA        11.0840   21.0350   17.4430 C.3   195  GLU195      0.1602
    123  C         10.6230   22.0670   16.4200 C.2   195  GLU195      0.2287
    124  O          9.4300   22.1530   16.1160 O.2   195  GLU195     -0.2864
    125  CB        11.0150   19.6470   16.8040 C.3   195  GLU195      0.0415
    126  CG        12.3370   18.9050   16.7190 C.3   195  GLU195      0.1163
    127  CD        12.4150   18.0120   15.4900 C.2   195  GLU195      0.3649
    128  OE1       12.4320   18.5580   14.3630 O.co2 195  GLU195     -0.2457
    129  OE2       12.4580   16.7700   15.6460 O.co2 195  GLU195     -0.2457
    130  N         12.8940   26.4880   17.8470 N.3   198  SER198     -0.1217
    131  CA        14.2250   26.9390   18.2540 C.3   198  SER198      0.1889
    132  C         14.5520   28.3290   17.7400 C.2   198  SER198      0.2288
    133  O         14.1940   28.6710   16.6210 O.2   198  SER198     -0.2866
    134  CB        15.3010   25.9780   17.7360 C.3   198  SER198      0.2089
    135  OG        15.1310   24.6730   18.2360 O.3   198  SER198     -0.2183
    136  N         14.0620   30.4620   22.6450 N.3   218  VAL218     -0.1231
    137  CA        13.7610   29.0360   22.7220 C.3   218  VAL218      0.1692
    138  C         15.0470   28.2460   22.5060 C.2   218  VAL218      0.2593
    139  O         15.5880   28.2300   21.4030 O.2   218  VAL218     -0.2718
    140  CB        12.7200   28.6180   21.6480 C.3   218  VAL218      0.0266
    141  CG1       12.4110   27.1370   21.7760 C.3   218  VAL218      0.0020
    142  CG2       11.4380   29.4340   21.8160 C.3   218  VAL218      0.0020
    143  N         15.5230   27.5830   23.5570 N.am  219  SER219     -0.1938
    144  CA        16.7590   26.8210   23.4640 C.3   219  SER219      0.2055
    145  C         16.6060   25.3070   23.4130 C.2   219  SER219      0.2643
    146  O         16.9540   24.6810   22.4070 O.2   219  SER219     -0.2714
    147  CB        17.6870   27.1830   24.6200 C.3   219  SER219      0.2130
    148  OG        18.9040   26.4680   24.5170 O.3   219  SER219     -0.2179
    149  N         16.1120   24.7060   24.4920 N.am  220  TRP220     -0.1959
    150  CA        15.9580   23.2530   24.5150 C.3   220  TRP220      0.1771
    151  C         14.9070   22.7190   25.4730 C.2   220  TRP220      0.2620
    152  O         14.3700   23.4410   26.3100 O.2   220  TRP220     -0.2715
    153  CB        17.2980   22.5760   24.8410 C.3   220  TRP220      0.0590
    154  CG        17.8720   22.9380   26.1830 C.ar  220  TRP220      0.0006
    155  CD1       18.6540   24.0190   26.4750 C.ar  220  TRP220      0.0946
    156  CD2       17.7320   22.2000   27.4100 C.ar  220  TRP220      0.0152
    157  NE1       19.0140   23.9990   27.8060 N.ar  220  TRP220     -0.2442
    158  CE2       18.4600   22.8940   28.4020 C.ar  220  TRP220      0.0810
    159  CE3       17.0580   21.0270   27.7680 C.ar  220  TRP220      0.0012
    160  CZ2       18.5400   22.4440   29.7250 C.ar  220  TRP220      0.0191
    161  CZ3       17.1370   20.5860   29.0800 C.ar  220  TRP220      0.0001
    162  CH2       17.8700   21.2930   30.0410 C.ar  220  TRP220      0.0015
    163  N         14.6380   21.4290   25.3260 N.am  221  GLY221     -0.1940
    164  CA        13.6720   20.7510   26.1580 C.3   221  GLY221      0.2014
    165  C         13.8410   19.2580   25.9730 C.2   221  GLY221      0.2639
    166  O         14.6100   18.8150   25.1130 O.2   221  GLY221     -0.2714
    167  N         13.1390   18.4790   26.7860 N.am  222  GLU222     -0.1963
    168  CA        13.2030   17.0250   26.7060 C.3   222  GLU222      0.1733
    169  C         11.8120   16.5700   26.2950 C.2   222  GLU222      0.2617
    170  O         10.9280   16.3750   27.1340 O.2   222  GLU222     -0.2715
    171  CB        13.5950   16.4630   28.0680 C.3   222  GLU222      0.0429
    172  CG        14.9260   17.0150   28.5530 C.3   222  GLU222      0.1163
    173  CD        15.1860   16.7380   30.0160 C.2   222  GLU222      0.3649
    174  OE1       14.3620   17.1530   30.8560 O.co2 222  GLU222     -0.2457
    175  OE2       16.2190   16.1130   30.3250 O.co2 222  GLU222     -0.2457
    176  N         11.6400   16.4000   24.9880 N.am  223  GLY223     -0.1940
    177  CA        10.3510   16.0270   24.4520 C.3   223  GLY223      0.2014
    178  C          9.5890   17.3320   24.2570 C.2   223  GLY223      0.2639
    179  O         10.2000   18.3990   24.1650 O.2   223  GLY223     -0.2714
    180  N          8.2640   17.2660   24.2020 N.am  224  CYS224     -0.1967
    181  CA         7.4570   18.4690   24.0230 C.3   224  CYS224      0.1712
    182  C          6.1760   18.3830   24.8390 C.2   224  CYS224      0.2296
    183  O          5.3430   17.5100   24.6080 O.2   224  CYS224     -0.2864
    184  CB         7.1040   18.6680   22.5410 C.3   224  CYS224      0.0983
    185  SG         8.5250   19.0210   21.4590 S.3   224  CYS224     -0.0798
    186  N          5.6510   17.5530   28.0840 N.3   226  ARG226     -0.1245
    187  CA         5.5080   16.3570   28.9010 C.3   226  ARG226      0.1563
    188  C          5.3470   16.8090   30.3460 C.2   226  ARG226      0.2260
    189  O          5.9560   17.7930   30.7630 O.2   226  ARG226     -0.2867
    190  CB         6.7370   15.4630   28.7900 C.3   226  ARG226      0.0307
    191  CG         6.9820   14.9000   27.4150 C.3   226  ARG226      0.0489
    192  CD         7.8110   13.6480   27.5500 C.3   226  ARG226      0.2205
    193  NE         8.6200   13.3790   26.3720 N.pl3 226  ARG226     -0.0865
    194  CZ         9.8270   12.8290   26.4300 C.cat 226  ARG226      0.5346
    195  NH1       10.3420   12.5000   27.6090 N.pl3 226  ARG226      0.1354
    196  NH2       10.5240   12.6190   25.3190 N.pl3 226  ARG226      0.1354
    197  N          9.9340   20.8850   31.6100 N.3   230  TYR230     -0.1227
    198  CA         9.8080   22.2820   31.2170 C.3   230  TYR230      0.1736
    199  C         10.7400   22.7030   30.0820 C.2   230  TYR230      0.2596
    200  O         11.8150   22.1310   29.8920 O.2   230  TYR230     -0.2718
    201  CB        10.0600   23.1840   32.4270 C.3   230  TYR230      0.0548
    202  CG         9.2720   22.7990   33.6610 C.ar  230  TYR230     -0.0200
    203  CD1        9.7780   21.8770   34.5780 C.ar  230  TYR230     -0.0009
    204  CD2        8.0220   23.3620   33.9150 C.ar  230  TYR230     -0.0009
    205  CE1        9.0590   21.5310   35.7130 C.ar  230  TYR230      0.0417
    206  CE2        7.2960   23.0220   35.0450 C.ar  230  TYR230      0.0417
    207  CZ         7.8160   22.1110   35.9390 C.ar  230  TYR230      0.1957
    208  OH         7.0890   21.7910   37.0650 O.3   230  TYR230     -0.2866
    209  N         10.3160   23.7160   29.3310 N.am  231  GLY231     -0.1942
    210  CA        11.1320   24.2110   28.2440 C.3   231  GLY231      0.2014
    211  C         12.1580   25.1650   28.8150 C.2   231  GLY231      0.2639
    212  O         11.8710   25.8600   29.7920 O.2   231  GLY231     -0.2714
    213  N         13.3540   25.1880   28.2340 N.am  232  PHE232     -0.1959
    214  CA        14.4070   26.0730   28.7130 C.3   232  PHE232      0.1771
    215  C         14.7360   27.1600   27.6970 C.2   232  PHE232      0.2619
    216  O         14.7020   26.9380   26.4880 O.2   232  PHE232     -0.2715
    217  CB        15.6670   25.2740   29.0560 C.3   232  PHE232      0.0574
    218  CG        15.5660   24.5180   30.3470 C.ar  232  PHE232     -0.0200
    219  CD1       14.8460   23.3400   30.4230 C.ar  232  PHE232     -0.0042
    220  CD2       16.1600   25.0120   31.4990 C.ar  232  PHE232     -0.0042
    221  CE1       14.7210   22.6650   31.6330 C.ar  232  PHE232     -0.0003
    222  CE2       16.0390   24.3490   32.7050 C.ar  232  PHE232     -0.0003
    223  CZ        15.3180   23.1740   32.7740 C.ar  232  PHE232     -0.0000
    224  N         15.0650   28.3400   28.2110 N.am  233  TYR233     -0.1974
    225  CA        15.3620   29.4880   27.3840 C.3   233  TYR233      0.1639
    226  C         16.6500   30.1860   27.7710 C.2   233  TYR233      0.2290
    227  O         17.0430   30.1990   28.9390 O.2   233  TYR233     -0.2864
    228  CB        14.2040   30.4980   27.4860 C.3   233  TYR233      0.0560
    229  CG        12.8420   29.9160   27.1810 C.ar  233  TYR233     -0.0198
    230  CD1       12.1860   29.0850   28.0940 C.ar  233  TYR233     -0.0009
    231  CD2       12.2430   30.1420   25.9520 C.ar  233  TYR233     -0.0009
    232  CE1       10.9770   28.4940   27.7770 C.ar  233  TYR233      0.0417
    233  CE2       11.0400   29.5580   25.6270 C.ar  233  TYR233      0.0417
    234  CZ        10.4120   28.7330   26.5330 C.ar  233  TYR233      0.1957
    235  OH         9.2440   28.1120   26.1520 O.3   233  TYR233     -0.2866
@<TRIPOS>BOND
     1    38    39    1
     2    38    37    1
     3    38    41    1
     4    26    25    2
     5    39    40    2
     6    42    43    1
     7    42    41    1
     8    43    44    1
     9    25    24    1
    10    44    45    1
    11    24    27    1
    12    24    23    1
    13    27    28    1
    14   128   127   ar
    15    14    13    2
    16    28    30   ar
    17    28    29   ar
    18    33    30   ar
    19    33    35   ar
    20   127   129   ar
    21   127   126    1
    22    11    12    1
    23    30    32   ar
    24    13    12    1
    25    35    36   ar
    26    29    31   ar
    27     4     3    2
    28   124   123    2
    29   123   122    1
    30    12    15    1
    31    15    16    1
    32   133   132    2
    33     3     2    1
    34    32    31   ar
    35    32    34   ar
    36   126   125    1
    37   125   122    1
    38    36    34   ar
    39    18    16   ar
    40    18    20   ar
    41   122   121    1
    42    16    17   ar
    43   134   135    1
    44   134   131    1
    45   132   131    1
    46   130   131    1
    47     2     1    1
    48     2     5    1
    49    88    87    2
    50     8    10   ar
    51     8     6   ar
    52    20    21   ar
    53   121   117   am
    54   118   117    2
    55    10     9   ar
    56    17    19   ar
    57     5     6    1
    58    87    86    1
    59     6     7   ar
    60   117   116    1
    61    57    59   ar
    62    57    55   ar
    63    59    58   ar
    64   120   119    1
    65   120   185    1
    66    21    19   ar
    67    21    22    1
    68     9     7   ar
    69    55    54   ar
    70    55    53   ar
    71    58    56   ar
    72   119   116    1
    73    54    52   ar
    74    85    86    1
    75    86    89    1
    76    53    56   ar
    77    53    51   ar
    78   116   115    1
    79    52    51   ar
    80    51    50    1
    81   115   112   am
    82    50    47    1
    83   139   138    2
    84   185   184    1
    85    89    90    1
    86   140   141    1
    87   140   142    1
    88   140   137    1
    89    90    91    1
    90   112   111    1
    91   112   113    2
    92   146   145    2
    93   138   137    1
    94   138   143   am
    95   111   114    1
    96   111   110    1
    97    47    48    1
    98    47    46    1
    99   184   181    1
   100   136   137    1
   101    49    48    2
   102    83    82    1
   103   105   104    2
   104    84    82    1
   105    91    93   ar
   106    91    92   ar
   107   145   144    1
   108   145   149   am
   109   144   143    1
   110   144   147    1
   111    82    81    1
   112   110   104   am
   113   104   103    1
   114   181   180    1
   115   181   182    1
   116   179   178    2
   117   180   178   am
   118   178   177    1
   119   177   176    1
   120   149   150    1
   121   150   153    1
   122   150   151    1
   123   148   147    1
   124   183   182    2
   125   153   154    1
   126   176   169   am
   127    81    78    1
   128   166   165    2
   129   196   194    1
   130   163   151   am
   131   163   164    1
   132   103   102    1
   133   103   106    1
   134   151   152    2
   135    78    79    1
   136    78    77    1
   137   233   231   ar
   138   233   234   ar
   139   106   107    1
   140   108   107   ar
   141   107   109   ar
   142   231   229   ar
   143   165   164    1
   144   165   167   am
   145    80    79    2
   146   235   234    1
   147   154   155   ar
   148   154   156   ar
   149    60    61    1
   150   169   168    1
   151   169   170    2
   152    77    71   am
   153   193   194    2
   154   193   192    1
   155   194   195    1
   156   155   157   ar
   157   216   215    2
   158   234   232   ar
   159   168   167    1
   160   168   171    1
   161   229   228    1
   162   229   230   ar
   163   225   228    1
   164   225   226    1
   165   225   224    1
   166   156   159   ar
   167   156   158   ar
   168   191   192    1
   169   191   190    1
   170    71    72    2
   171    71    70    1
   172    61    62    1
   173    61    64    1
   174    63    62    2
   175   215   224   am
   176   215   214    1
   177    62    69   am
   178   159   161   ar
   179   226   227    2
   180   232   230   ar
   181   157   158   ar
   182    69    70    1
   183   171   172    1
   184   186   187    1
   185   213   214    1
   186   213   211   am
   187   210   211    1
   188   210   209    1
   189    70    73    1
   190   158   160   ar
   191   172   173    1
   192    64    65    1
   193   214   217    1
   194   190   187    1
   195   211   212    2
   196   187   188    1
   197   217   218    1
   198   161   162   ar
   199   209   199   am
   200    75    74    2
   201   101    99    1
   202   160   162   ar
   203    73    74    1
   204   200   199    2
   205   173   175   ar
   206   173   174   ar
   207    65    66    1
   208   199   198    1
   209    74    76   am
   210    99    98    1
   211   188   189    2
   212   218   219   ar
   213   218   220   ar
   214   219   221   ar
   215   100    98    1
   216    68    66   ar
   217    66    67   ar
   218   198   197    1
   219   198   201    1
   220    98    95    1
   221   220   222   ar
   222   221   223   ar
   223   201   202    1
   224    95    94    1
   225    95    96    1
   226   222   223   ar
   227    96    97    2
   228   202   204   ar
   229   202   203   ar
   230   204   206   ar
   231   203   205   ar
   232   206   207   ar
   233   205   207   ar
   234   207   208    1
