@<TRIPOS>MOLECULE
tmp/2anlA00.pdb
 203 187 0 0 0
SMALL
GASTEIGER

@<TRIPOS>ATOM
      1  N         67.8530   10.8840   21.6430 N.3    32  ILE32      -0.1245
      2  CA        66.8210   11.6350   20.9820 C.3    32  ILE32       0.1561
      3  C         66.8230   12.9190   21.7640 C.2    32  ILE32       0.2260
      4  O         66.4390   12.9530   22.9320 O.2    32  ILE32      -0.2867
      5  CB        65.4150   11.0010   21.0880 C.3    32  ILE32       0.0252
      6  CG1       65.1930    9.9380   20.0220 C.3    32  ILE32       0.0019
      7  CG2       64.3340   12.0410   20.8210 C.3    32  ILE32       0.0019
      8  CD1       63.7870    9.2740   20.0580 C.3    32  ILE32       0.0001
      9  N         65.2600   16.0000   22.8500 N.3    34  ASP34      -0.1239
     10  CA        63.8760   16.3650   22.9120 C.3    34  ASP34       0.1674
     11  C         63.5620   17.5590   23.8540 C.2    34  ASP34       0.2266
     12  O         63.8230   17.5070   25.0460 O.2    34  ASP34      -0.2867
     13  CB        63.1410   15.1310   23.3540 C.3    34  ASP34       0.1410
     14  CG        61.7310   15.4030   23.6270 C.2    34  ASP34       0.3668
     15  OD1       61.1290   14.5870   24.3990 O.co2  34  ASP34      -0.2456
     16  OD2       61.1930   16.4450   23.1230 O.co2  34  ASP34      -0.2456
     17  N         60.8020   18.4120   24.6820 N.3    36  GLY36      -0.1210
     18  CA        59.4970   18.0210   25.1970 C.3    36  GLY36       0.1956
     19  C         59.5630   17.2800   26.5030 C.2    36  GLY36       0.2612
     20  O         58.6870   17.3980   27.2860 O.2    36  GLY36      -0.2717
     21  N         60.5980   16.5110   26.7410 N.am   37  SER37      -0.1952
     22  CA        60.7890   15.9760   28.0480 C.3    37  SER37       0.1924
     23  C         61.9740   16.6650   28.7060 C.2    37  SER37       0.2314
     24  O         62.6450   17.5150   28.0990 O.2    37  SER37      -0.2863
     25  CB        60.9720   14.4820   27.9970 C.3    37  SER37       0.2116
     26  OG        62.2620   14.1460   27.6320 O.3    37  SER37      -0.2180
     27  N         64.0930   14.7950   31.0410 N.3    39  ASN39      -0.1240
     28  CA        64.9100   13.8230   31.7090 C.3    39  ASN39       0.1653
     29  C         65.8760   13.1970   30.7670 C.2    39  ASN39       0.2266
     30  O         65.9740   13.5640   29.6220 O.2    39  ASN39      -0.2867
     31  CB        64.0230   12.7540   32.3560 C.3    39  ASN39       0.1155
     32  CG        63.1930   13.2960   33.5030 C.2    39  ASN39       0.2627
     33  OD1       62.3480   14.1370   33.2800 O.2    39  ASN39      -0.2716
     34  ND2       63.4340   12.8200   34.7220 N.am   39  ASN39      -0.0877
     35  N         58.4880    7.4680   33.9970 N.3    75  ILE75      -0.1231
     36  CA        58.0550    8.5350   33.1440 C.3    75  ILE75       0.1692
     37  C         56.9770    8.0750   32.2080 C.2    75  ILE75       0.2593
     38  O         57.1210    7.0480   31.5950 O.2    75  ILE75      -0.2718
     39  CB        59.1760    8.9970   32.2440 C.3    75  ILE75       0.0266
     40  CG1       60.4500    9.3160   33.0310 C.3    75  ILE75       0.0019
     41  CG2       58.7110   10.2220   31.4980 C.3    75  ILE75       0.0020
     42  CD1       61.5930    9.8940   32.1950 C.3    75  ILE75       0.0001
     43  N         55.9460    8.8990   32.0450 N.am   76  THR76      -0.1939
     44  CA        54.8080    8.6110   31.1750 C.3    76  THR76       0.2028
     45  C         54.7570    9.6050   30.0360 C.2    76  THR76       0.2642
     46  O         54.0370   10.6210   30.1230 O.2    76  THR76      -0.2714
     47  CB        53.4980    8.7180   31.9390 C.3    76  THR76       0.1808
     48  OG1       53.5100    7.8200   33.0400 O.3    76  THR76      -0.2208
     49  CG2       52.3460    8.2460   31.0880 C.3    76  THR76       0.0379
     50  N         55.4970    9.2990   28.9690 N.am   77  TYR77      -0.1959
     51  CA        55.4870   10.1160   27.7820 C.3    77  TYR77       0.1771
     52  C         54.1570   10.0400   27.0850 C.2    77  TYR77       0.2620
     53  O         53.3090    9.2340   27.4310 O.2    77  TYR77      -0.2715
     54  CB        56.5760    9.6840   26.8160 C.3    77  TYR77       0.0574
     55  CG        57.9830    9.8620   27.3550 C.ar   77  TYR77      -0.0198
     56  CD1       58.6080    8.8300   28.0450 C.ar   77  TYR77      -0.0009
     57  CD2       58.7080   11.0430   27.1560 C.ar   77  TYR77      -0.0009
     58  CE1       59.9130    8.9710   28.5210 C.ar   77  TYR77       0.0417
     59  CE2       59.9690   11.1750   27.6520 C.ar   77  TYR77       0.0417
     60  CZ        60.5590   10.1340   28.3170 C.ar   77  TYR77       0.1957
     61  OH        61.8070   10.2440   28.7890 O.3    77  TYR77      -0.2866
     62  N         53.9830   10.8950   26.0930 N.am   78  GLY78      -0.1940
     63  CA        52.7680   10.8980   25.3150 C.3    78  GLY78       0.2014
     64  C         52.4280    9.5380   24.7320 C.2    78  GLY78       0.2639
     65  O         51.2610    9.0880   24.8130 O.2    78  GLY78      -0.2714
     66  N         53.4410    8.8620   24.1740 N.am   79  SER79      -0.1949
     67  CA        53.2270    7.5250   23.5650 C.3    79  SER79       0.1924
     68  C         53.8020    6.3410   24.3150 C.2    79  SER79       0.2314
     69  O         54.2410    5.3800   23.7060 O.2    79  SER79      -0.2863
     70  CB        53.7100    7.4930   22.1280 C.3    79  SER79       0.2116
     71  OG        52.7340    8.1020   21.2830 O.3    79  SER79      -0.2180
     72  N         56.1530    1.3890   25.2840 N.3   111  LEU111     -0.1245
     73  CA        56.5700    2.4450   24.4640 C.3   111  LEU111      0.1561
     74  C         56.6070    1.6380   23.2710 C.2   111  LEU111      0.2260
     75  O         57.4000    1.8400   22.3540 O.2   111  LEU111     -0.2867
     76  CB        57.9380    3.0160   24.7860 C.3   111  LEU111      0.0270
     77  CG        57.9470    4.5460   24.7170 C.3   111  LEU111      0.0019
     78  CD1       56.9920    5.1330   25.7430 C.3   111  LEU111      0.0001
     79  CD2       59.3680    5.0850   24.9170 C.3   111  LEU111      0.0001
     80  N         56.6110    0.9330   18.3580 N.3   114  LEU114     -0.1245
     81  CA        57.5560    1.9200   18.8270 C.3   114  LEU114      0.1561
     82  C         58.7780    1.1960   19.2830 C.2   114  LEU114      0.2260
     83  O         59.4790    0.6060   18.4860 O.2   114  LEU114     -0.2867
     84  CB        56.9800    2.6840   20.0000 C.3   114  LEU114      0.0270
     85  CG        55.8260    3.5820   19.6000 C.3   114  LEU114      0.0019
     86  CD1       56.3090    5.0050   19.5860 C.3   114  LEU114      0.0001
     87  CD2       55.3560    3.1670   18.2290 C.3   114  LEU114      0.0001
     88  N         66.3490    4.0730   18.0380 N.3   120  PHE120     -0.1241
     89  CA        66.8500    4.8070   19.2020 C.3   120  PHE120      0.1605
     90  C         66.8830    4.0720   20.4870 C.2   120  PHE120      0.2264
     91  O         66.0870    3.1940   20.7250 O.2   120  PHE120     -0.2867
     92  CB        66.0760    6.1190   19.4200 C.3   120  PHE120      0.0534
     93  CG        64.8050    5.9930   20.2510 C.ar  120  PHE120     -0.0203
     94  CD1       63.6260    5.5590   19.6780 C.ar  120  PHE120     -0.0042
     95  CD2       64.7940    6.3770   21.5860 C.ar  120  PHE120     -0.0042
     96  CE1       62.4770    5.4660   20.4230 C.ar  120  PHE120     -0.0003
     97  CE2       63.6250    6.2950   22.3400 C.ar  120  PHE120     -0.0003
     98  CZ        62.4770    5.8380   21.7580 C.ar  120  PHE120     -0.0000
     99  N         66.6810    8.9740   25.5290 N.3   123  ILE123     -0.1245
    100  CA        66.1480   10.2840   25.3170 C.3   123  ILE123      0.1561
    101  C         66.8610   11.2270   26.2310 C.2   123  ILE123      0.2260
    102  O         67.0170   10.9740   27.3960 O.2   123  ILE123     -0.2867
    103  CB        64.6510   10.3120   25.6440 C.3   123  ILE123      0.0252
    104  CG1       63.9030    9.5260   24.5990 C.3   123  ILE123      0.0019
    105  CG2       64.1210   11.7320   25.6440 C.3   123  ILE123      0.0019
    106  CD1       62.4770    9.3890   24.9020 C.3   123  ILE123      0.0001
    107  N         59.6410   20.4160   34.3130 N.3   131  LEU131     -0.1245
    108  CA        59.0710   19.4570   33.3680 C.3   131  LEU131      0.1561
    109  C         59.6370   18.0540   33.6030 C.2   131  LEU131      0.2260
    110  O         59.2250   17.0570   33.0010 O.2   131  LEU131     -0.2867
    111  CB        59.4170   19.9300   31.9580 C.3   131  LEU131      0.0270
    112  CG        58.8760   19.1640   30.7450 C.3   131  LEU131      0.0019
    113  CD1       57.4030   19.3700   30.6390 C.3   131  LEU131      0.0001
    114  CD2       59.5570   19.6200   29.4780 C.3   131  LEU131      0.0001
    115  N         60.9940   14.8910   35.9850 N.3   133  ILE133     -0.1245
    116  CA        60.5890   14.0190   37.0710 C.3   133  ILE133      0.1561
    117  C         61.7740   13.8040   38.0060 C.2   133  ILE133      0.2260
    118  O         62.7630   13.1900   37.6240 O.2   133  ILE133     -0.2867
    119  CB        60.1470   12.7230   36.4750 C.3   133  ILE133      0.0252
    120  CG1       59.0120   13.0230   35.5030 C.3   133  ILE133      0.0019
    121  CG2       59.7490   11.8090   37.5660 C.3   133  ILE133      0.0019
    122  CD1       58.6220   11.8760   34.6820 C.3   133  ILE133      0.0001
    123  N         57.7050   23.7500   29.1840 N.3   192  PHE192     -0.1241
    124  CA        58.0990   23.3850   27.8650 C.3   192  PHE192      0.1605
    125  C         58.7700   24.6300   27.4000 C.2   192  PHE192      0.2264
    126  O         58.9170   25.5650   28.1910 O.2   192  PHE192     -0.2867
    127  CB        56.8880   23.0950   26.9610 C.3   192  PHE192      0.0534
    128  CG        56.1140   21.9080   27.3770 C.ar  192  PHE192     -0.0203
    129  CD1       55.1890   22.0210   28.3360 C.ar  192  PHE192     -0.0042
    130  CD2       56.3360   20.6600   26.8270 C.ar  192  PHE192     -0.0042
    131  CE1       54.5050   20.9250   28.7350 C.ar  192  PHE192     -0.0003
    132  CE2       55.6460   19.5840   27.2250 C.ar  192  PHE192     -0.0003
    133  CZ        54.7530   19.7120   28.1720 C.ar  192  PHE192     -0.0000
    134  N         54.2680   25.1310   21.2520 N.3   212  ILE212     -0.1245
    135  CA        55.4800   24.6000   21.7740 C.3   212  ILE212      0.1561
    136  C         56.2160   23.7330   20.7930 C.2   212  ILE212      0.2260
    137  O         55.6710   23.1010   19.8840 O.2   212  ILE212     -0.2867
    138  CB        55.1620   23.8290   22.9980 C.3   212  ILE212      0.0252
    139  CG1       55.1030   22.3430   22.7300 C.3   212  ILE212      0.0019
    140  CG2       53.8160   24.2510   23.5180 C.3   212  ILE212      0.0019
    141  CD1       54.3740   21.6930   23.8100 C.3   212  ILE212      0.0001
    142  N         58.8670   21.1900   19.7690 N.3   214  ASP214     -0.1239
    143  CA        59.1750   19.8590   20.2380 C.3   214  ASP214      0.1674
    144  C         60.1480   19.1530   19.3100 C.2   214  ASP214      0.2266
    145  O         59.7490   18.5010   18.3430 O.2   214  ASP214     -0.2867
    146  CB        57.9020   19.0340   20.3360 C.3   214  ASP214      0.1410
    147  CG        58.1030   17.7980   21.1200 C.2   214  ASP214      0.3668
    148  OD1       57.2700   16.8910   21.0020 O.co2 214  ASP214     -0.2456
    149  OD2       59.0760   17.6420   21.8880 O.co2 214  ASP214     -0.2456
    150  N         61.4540   16.5430   19.6660 N.3   216  GLY216     -0.1210
    151  CA        61.2840   15.0880   19.7690 C.3   216  GLY216      0.1956
    152  C         60.3270   14.4610   18.7920 C.2   216  GLY216      0.2613
    153  O         60.6410   13.4330   18.2570 O.2   216  GLY216     -0.2717
    154  N         59.1790   15.0840   18.5550 N.am  217  THR217     -0.1938
    155  CA        58.1500   14.5590   17.6340 C.3   217  THR217      0.2028
    156  C         58.3660   14.9630   16.2180 C.2   217  THR217      0.2643
    157  O         58.9710   15.9770   15.9630 O.2   217  THR217     -0.2714
    158  CB        56.7800   15.1280   17.9690 C.3   217  THR217      0.1808
    159  OG1       56.4920   14.9020   19.3420 O.3   217  THR217     -0.2208
    160  CG2       55.6720   14.3980   17.2510 C.3   217  THR217      0.0379
    161  N         57.8040   14.1950   15.3060 N.am  218  SER218     -0.1935
    162  CA        57.8770   14.5080   13.9200 C.3   218  SER218      0.2055
    163  C         56.5450   14.9980   13.3760 C.2   218  SER218      0.2643
    164  O         56.2790   14.9050   12.1970 O.2   218  SER218     -0.2714
    165  CB        58.2920   13.2670   13.1670 C.3   218  SER218      0.2130
    166  OG        57.2070   12.3700   13.2540 O.3   218  SER218     -0.2179
    167  N         55.7210   15.5750   14.2070 N.am  219  THR219     -0.1950
    168  CA        54.4400   16.0080   13.7190 C.3   219  THR219      0.1897
    169  C         54.1090   17.3650   14.2710 C.2   219  THR219      0.2313
    170  O         54.8700   17.9630   15.0460 O.2   219  THR219     -0.2863
    171  CB        53.3620   15.0550   14.1120 C.3   219  THR219      0.1794
    172  OG1       52.7870   15.4580   15.3490 O.3   219  THR219     -0.2208
    173  CG2       53.9330   13.6680   14.3920 C.3   219  THR219      0.0378
    174  N         50.6470   19.3880   15.7300 N.3   221  THR221     -0.1218
    175  CA        49.3690   19.0140   16.2680 C.3   221  THR221      0.1862
    176  C         48.5630   20.2090   16.7150 C.2   221  THR221      0.2287
    177  O         49.0900   21.3120   16.8860 O.2   221  THR221     -0.2866
    178  CB        49.5740   18.1500   17.4810 C.3   221  THR221      0.1770
    179  OG1       50.0860   18.9620   18.5370 O.3   221  THR221     -0.2211
    180  CG2       50.6380   17.1020   17.2510 C.3   221  THR221      0.0375
    181  N         45.4500   16.2910   18.5450 N.3   292  VAL292     -0.1245
    182  CA        45.7820   15.8900   19.8910 C.3   292  VAL292      0.1561
    183  C         45.1900   16.9050   20.8500 C.2   292  VAL292      0.2260
    184  O         45.2350   18.1100   20.5970 O.2   292  VAL292     -0.2867
    185  CB        47.2800   15.8790   20.1290 C.3   292  VAL292      0.0252
    186  CG1       47.5810   15.1720   21.4030 C.3   292  VAL292      0.0019
    187  CG2       47.9750   15.1430   19.0320 C.3   292  VAL292      0.0019
    188  N         45.7950   18.1700   24.2340 N.3   294  ILE294     -0.1245
    189  CA        46.5360   18.4900   25.4450 C.3   294  ILE294      0.1561
    190  C         45.7010   19.3900   26.3290 C.2   294  ILE294      0.2260
    191  O         45.2780   18.9840   27.4010 O.2   294  ILE294     -0.2867
    192  CB        47.8150   19.2330   25.1590 C.3   294  ILE294      0.0252
    193  CG1       48.6500   18.4720   24.1440 C.3   294  ILE294      0.0019
    194  CG2       48.5660   19.4620   26.4490 C.3   294  ILE294      0.0019
    195  CD1       48.2760   18.7870   22.6450 C.3   294  ILE294      0.0001
    196  N         51.6880   21.9740   19.0470 N.3   300  ILE300     -0.1245
    197  CA        53.0370   21.4290   19.1400 C.3   300  ILE300      0.1561
    198  C         53.7190   21.5180   17.8130 C.2   300  ILE300      0.2260
    199  O         53.1520   21.0640   16.8220 O.2   300  ILE300     -0.2867
    200  CB        53.0170   19.9600   19.5730 C.3   300  ILE300      0.0252
    201  CG1       52.0930   19.7910   20.7900 C.3   300  ILE300      0.0019
    202  CG2       54.4220   19.5240   19.8850 C.3   300  ILE300      0.0019
    203  CD1       52.0060   18.4280   21.3380 C.3   300  ILE300      0.0001
@<TRIPOS>BOND
     1   164   163    2
     2   165   166    1
     3   165   162    1
     4   163   162    1
     5   163   167   am
     6   168   171    1
     7   168   167    1
     8   168   169    1
     9   162   161    1
    10   171   173    1
    11   171   172    1
    12   169   170    2
    13   161   156   am
    14   174   175    1
    15   157   156    2
    16   156   155    1
    17   175   176    1
    18   175   178    1
    19   176   177    2
    20   199   198    2
    21   180   178    1
    22   160   158    1
    23   178   179    1
    24   155   158    1
    25   155   154    1
    26   198   197    1
    27   158   159    1
    28    88    89    1
    29    87    85    1
    30   153   152    2
    31   145   144    2
    32    80    81    1
    33    83    82    2
    34   181   182    1
    35   154   152   am
    36   152   151    1
    37    81    82    1
    38    81    84    1
    39   187   185    1
    40   196   197    1
    41   197   200    1
    42    89    92    1
    43    89    90    1
    44   144   143    1
    45    92    93    1
    46   200   202    1
    47   200   201    1
    48    86    85    1
    49    85    84    1
    50   150   151    1
    51    94    93   ar
    52    94    96   ar
    53   142   143    1
    54   137   136    2
    55   182   185    1
    56   182   183    1
    57     6     8    1
    58     6     5    1
    59   185   186    1
    60   143   146    1
    61    93    95   ar
    62   146   147    1
    63    96    98   ar
    64    90    91    2
    65   184   183    2
    66   201   203    1
    67   136   135    1
    68     7     5    1
    69     2     5    1
    70     2     1    1
    71     2     3    1
    72   148   147   ar
    73   147   149   ar
    74   134   135    1
    75    71    70    1
    76    95    97   ar
    77    98    97   ar
    78     3     4    2
    79   135   138    1
    80    70    67    1
    81    75    74    2
    82   195   193    1
    83   139   138    1
    84   139   141    1
    85     9    10    1
    86    10    13    1
    87    10    11    1
    88   138   140    1
    89    16    14   ar
    90    74    73    1
    91    13    14    1
    92    67    66    1
    93    67    68    1
    94    14    15   ar
    95    69    68    2
    96    11    12    2
    97   193   192    1
    98    66    64   am
    99   188   189    1
   100    73    76    1
   101    73    72    1
   102   104   106    1
   103   104   103    1
   104    17    18    1
   105    77    76    1
   106    77    79    1
   107    77    78    1
   108    64    65    2
   109    64    63    1
   110   192   189    1
   111   192   194    1
   112    18    19    1
   113    63    62    1
   114   100    99    1
   115   100   103    1
   116   100   101    1
   117   189   190    1
   118   103   105    1
   119    62    52   am
   120   101   102    2
   121   190   191    2
   122    19    21   am
   123    19    20    2
   124    21    22    1
   125    54    55    1
   126    54    51    1
   127   130   132   ar
   128   130   128   ar
   129   127   128    1
   130   127   124    1
   131    52    53    2
   132    52    51    1
   133    57    55   ar
   134    57    59   ar
   135   132   133   ar
   136    55    56   ar
   137   128   129   ar
   138   125   124    1
   139   125   126    2
   140    26    25    1
   141    59    60   ar
   142    51    50    1
   143   124   123    1
   144    25    22    1
   145    56    58   ar
   146    22    23    1
   147    24    23    2
   148   133   131   ar
   149    60    58   ar
   150    60    61    1
   151   129   131   ar
   152    50    45   am
   153   114   112    1
   154    30    29    2
   155    45    46    2
   156    45    44    1
   157   113   112    1
   158   112   111    1
   159    29    28    1
   160    27    28    1
   161    49    47    1
   162    44    47    1
   163    44    43    1
   164    41    39    1
   165    38    37    2
   166    28    31    1
   167    47    48    1
   168   111   108    1
   169    43    37   am
   170    42    40    1
   171    37    36    1
   172    39    40    1
   173    39    36    1
   174    31    32    1
   175   110   109    2
   176    36    35    1
   177    33    32    2
   178   108   109    1
   179   108   107    1
   180    32    34   am
   181   122   120    1
   182   120   119    1
   183   115   116    1
   184   119   116    1
   185   119   121    1
   186   116   117    1
   187   118   117    2
