@<TRIPOS>MOLECULE
tmp/2anmA00.pdb
 217 218 0 0 0
SMALL
GASTEIGER

@<TRIPOS>ATOM
      1  N         22.5340   27.2190   18.4990 N.3    43  HIS43      -0.1241
      2  CA        22.4020   25.8580   18.0110 C.3    43  HIS43       0.1621
      3  C         21.7180   25.7890   16.6530 C.2    43  HIS43       0.2264
      4  O         21.7660   24.7540   15.9850 O.2    43  HIS43      -0.2867
      5  CB        21.6630   24.9730   19.0170 C.3    43  HIS43       0.0745
      6  CG        20.1790   25.1610   19.0360 C.ar   43  HIS43       0.0817
      7  ND1       19.5390   25.9450   19.9720 N.ar   43  HIS43      -0.2268
      8  CD2       19.2070   24.6460   18.2480 C.ar   43  HIS43       0.1154
      9  CE1       18.2360   25.9040   19.7600 C.ar   43  HIS43       0.1986
     10  NE2       18.0090   25.1220   18.7200 N.ar   43  HIS43      -0.2212
     11  N         26.0880   23.2290   15.5340 N.3    47  TYR47      -0.1241
     12  CA        25.7790   22.0930   16.3920 C.3    47  TYR47       0.1605
     13  C         26.4060   20.8120   15.8380 C.2    47  TYR47       0.2264
     14  O         25.7190   19.9720   15.2430 O.2    47  TYR47      -0.2867
     15  CB        24.2740   21.8920   16.5380 C.3    47  TYR47       0.0534
     16  CG        23.9790   20.9470   17.6740 C.ar   47  TYR47      -0.0201
     17  CD1       24.4980   21.1930   18.9380 C.ar   47  TYR47      -0.0009
     18  CD2       23.2570   19.7800   17.4760 C.ar   47  TYR47      -0.0009
     19  CE1       24.3190   20.3050   19.9690 C.ar   47  TYR47       0.0417
     20  CE2       23.0670   18.8810   18.5100 C.ar   47  TYR47       0.0417
     21  CZ        23.6060   19.1490   19.7550 C.ar   47  TYR47       0.1957
     22  OH        23.4480   18.2570   20.7960 O.3    47  TYR47      -0.2866
     23  N         25.3160   17.0830   15.2010 N.3    50  TRP50      -0.1241
     24  CA        24.4580   16.7960   14.0490 C.3    50  TRP50       0.1605
     25  C         25.0870   17.3440   12.7720 C.2    50  TRP50       0.2264
     26  O         24.3960   17.5940   11.7810 O.2    50  TRP50      -0.2867
     27  CB        23.0630   17.4200   14.2190 C.3    50  TRP50       0.0550
     28  CG        22.3050   16.9170   15.4070 C.ar   50  TRP50       0.0003
     29  CD1       22.5850   15.8090   16.1420 C.ar   50  TRP50       0.0946
     30  CD2       21.1240   17.4990   15.9880 C.ar   50  TRP50       0.0152
     31  NE1       21.6550   15.6590   17.1480 N.ar   50  TRP50      -0.2442
     32  CE2       20.7480   16.6840   17.0740 C.ar   50  TRP50       0.0810
     33  CE3       20.3500   18.6280   15.6920 C.ar   50  TRP50       0.0012
     34  CZ2       19.6340   16.9610   17.8690 C.ar   50  TRP50       0.0191
     35  CZ3       19.2430   18.9000   16.4810 C.ar   50  TRP50       0.0001
     36  CH2       18.8970   18.0680   17.5570 C.ar   50  TRP50       0.0015
     37  N         28.1720   23.9720   23.1670 N.3    92  TRP92      -0.1241
     38  CA        27.3800   22.9650   22.4840 C.3    92  TRP92       0.1605
     39  C         27.7410   21.5650   22.9630 C.2    92  TRP92       0.2264
     40  O         26.9420   20.6410   22.8480 O.2    92  TRP92      -0.2867
     41  CB        27.5910   23.0540   20.9770 C.3    92  TRP92       0.0550
     42  CG        29.0220   23.0960   20.5720 C.ar   92  TRP92       0.0003
     43  CD1       29.7890   24.2120   20.3740 C.ar   92  TRP92       0.0946
     44  CD2       29.8640   21.9740   20.2880 C.ar   92  TRP92       0.0152
     45  NE1       31.0530   23.8520   19.9760 N.ar   92  TRP92      -0.2442
     46  CE2       31.1280   22.4850   19.9170 C.ar   92  TRP92       0.0810
     47  CE3       29.6750   20.5860   20.3140 C.ar   92  TRP92       0.0012
     48  CZ2       32.1980   21.6550   19.5690 C.ar   92  TRP92       0.0191
     49  CZ3       30.7420   19.7630   19.9700 C.ar   92  TRP92       0.0001
     50  CH2       31.9850   20.3010   19.6040 C.ar   92  TRP92       0.0015
     51  N         28.2930   20.4130   26.1080 N.3    94  GLU94      -0.1231
     52  CA        27.7100   19.9370   27.3520 C.3    94  GLU94       0.1699
     53  C         26.2490   20.2140   27.6830 C.2    94  GLU94       0.2592
     54  O         25.4820   19.2790   27.9110 O.2    94  GLU94      -0.2718
     55  CB        28.5910   20.4490   28.4860 C.3    94  GLU94       0.0402
     56  CG        28.0430   20.2700   29.8730 C.3    94  GLU94       0.1161
     57  CD        28.9110   20.9670   30.8970 C.2    94  GLU94       0.3649
     58  OE1       28.5290   20.9830   32.0830 O.co2  94  GLU94      -0.2457
     59  OE2       29.9800   21.5020   30.5130 O.co2  94  GLU94      -0.2457
     60  N         25.8610   21.4870   27.7170 N.am   95  ASN95      -0.1960
     61  CA        24.4920   21.8390   28.0820 C.3    95  ASN95       0.1819
     62  C         23.8910   23.0060   27.3040 C.2    95  ASN95       0.2621
     63  O         22.8820   23.5830   27.7190 O.2    95  ASN95      -0.2715
     64  CB        24.4440   22.1590   29.5790 C.3    95  ASN95       0.1195
     65  CG        25.3670   23.3160   29.9580 C.2    95  ASN95       0.2630
     66  OD1       26.1320   23.8170   29.1300 O.2    95  ASN95      -0.2716
     67  ND2       25.2970   23.7400   31.2090 N.am   95  ASN95      -0.0877
     68  N         24.5040   23.3630   26.1830 N.am   96  LEU96      -0.1977
     69  CA        23.9850   24.4610   25.3820 C.3    96  LEU96       0.1596
     70  C         23.9730   25.7870   26.1580 C.2    96  LEU96       0.2287
     71  O         23.0890   26.6290   25.9750 O.2    96  LEU96      -0.2864
     72  CB        22.5750   24.1070   24.8910 C.3    96  LEU96       0.0297
     73  CG        22.3470   23.9550   23.3820 C.3    96  LEU96       0.0022
     74  CD1       23.6310   23.5100   22.6860 C.3    96  LEU96       0.0001
     75  CD2       21.2150   22.9630   23.1370 C.3    96  LEU96       0.0001
     76  N         20.3630   17.3720   32.9790 N.3   172  ILE172     -0.1245
     77  CA        21.1950   18.3410   32.2840 C.3   172  ILE172      0.1561
     78  C         21.6060   19.4430   33.2570 C.2   172  ILE172      0.2260
     79  O         20.7970   19.9080   34.0610 O.2   172  ILE172     -0.2867
     80  CB        20.4130   18.9520   31.0890 C.3   172  ILE172      0.0252
     81  CG1       20.1470   17.8650   30.0410 C.3   172  ILE172      0.0019
     82  CG2       21.1690   20.1350   30.5010 C.3   172  ILE172      0.0019
     83  CD1       21.4150   17.2280   29.4760 C.3   172  ILE172      0.0001
     84  N          3.9150   24.1120   25.0810 N.3   192  ASP192     -0.1225
     85  CA         5.3740   24.1770   25.0800 C.3   192  ASP192      0.1805
     86  C          5.8810   24.4840   23.6710 C.2   192  ASP192      0.2598
     87  O          5.1290   24.4080   22.6960 O.2   192  ASP192     -0.2718
     88  CB         5.9220   22.8180   25.5300 C.3   192  ASP192      0.1424
     89  CG         7.4370   22.8040   25.7240 C.2   192  ASP192      0.3668
     90  OD1        7.9990   21.6920   25.8520 O.co2 192  ASP192     -0.2456
     91  OD2        8.0680   23.8800   25.7670 O.co2 192  ASP192     -0.2456
     92  N          7.1550   24.8490   23.5700 N.am  193  ALA193     -0.1966
     93  CA         7.7650   25.1100   22.2790 C.3   193  ALA193      0.1728
     94  C          8.1640   23.7170   21.8040 C.2   193  ALA193      0.2616
     95  O          7.9660   22.7380   22.5160 O.2   193  ALA193     -0.2715
     96  CB         8.9950   25.9850   22.4350 C.3   193  ALA193      0.0334
     97  N          8.7350   23.6160   20.6140 N.am  194  CYS194     -0.1954
     98  CA         9.1160   22.3140   20.1130 C.3   194  CYS194      0.1843
     99  C         10.0420   22.4740   18.9250 C.2   194  CYS194      0.2625
    100  O         10.3000   23.5940   18.4780 O.2   194  CYS194     -0.2714
    101  CB         7.8580   21.5430   19.7000 C.3   194  CYS194      0.0997
    102  SG         8.0980   19.7480   19.4530 S.3   194  CYS194     -0.0797
    103  N         10.5400   21.3470   18.4260 N.am  195  GLU195     -0.1977
    104  CA        11.4300   21.3370   17.2770 C.3   195  GLU195      0.1602
    105  C         10.9060   22.3430   16.2610 C.2   195  GLU195      0.2287
    106  O          9.7100   22.3870   15.9940 O.2   195  GLU195     -0.2864
    107  CB        11.4660   19.9310   16.6580 C.3   195  GLU195      0.0415
    108  CG        12.3220   19.8210   15.3920 C.3   195  GLU195      0.1163
    109  CD        12.5210   18.3790   14.9170 C.2   195  GLU195      0.3649
    110  OE1       13.3620   18.1650   14.0120 O.co2 195  GLU195     -0.2457
    111  OE2       11.8440   17.4640   15.4390 O.co2 195  GLU195     -0.2457
    112  N         13.0010   26.6860   17.7720 N.3   198  SER198     -0.1217
    113  CA        14.3410   27.1270   18.1710 C.3   198  SER198      0.1889
    114  C         14.6330   28.5340   17.6950 C.2   198  SER198      0.2288
    115  O         14.3170   28.8740   16.5650 O.2   198  SER198     -0.2866
    116  CB        15.4190   26.2170   17.5660 C.3   198  SER198      0.2089
    117  OG        15.4410   24.9310   18.1400 O.3   198  SER198     -0.2183
    118  N         14.1460   30.6110   22.4710 N.3   218  VAL218     -0.1231
    119  CA        13.8350   29.1920   22.5590 C.3   218  VAL218      0.1692
    120  C         15.1350   28.4000   22.3900 C.2   218  VAL218      0.2593
    121  O         15.7610   28.4320   21.3320 O.2   218  VAL218     -0.2718
    122  CB        12.8380   28.7730   21.4650 C.3   218  VAL218      0.0266
    123  CG1       12.6090   27.2400   21.5160 C.3   218  VAL218      0.0020
    124  CG2       11.5280   29.5330   21.6500 C.3   218  VAL218      0.0020
    125  N         15.5350   27.6840   23.4320 N.am  219  SER219     -0.1938
    126  CA        16.7840   26.9430   23.3860 C.3   219  SER219      0.2055
    127  C         16.6540   25.4220   23.3390 C.2   219  SER219      0.2643
    128  O         16.9770   24.7970   22.3230 O.2   219  SER219     -0.2714
    129  CB        17.6600   27.3520   24.5780 C.3   219  SER219      0.2130
    130  OG        18.9150   26.7050   24.5320 O.3   219  SER219     -0.2179
    131  N         16.1900   24.8130   24.4230 N.am  220  TRP220     -0.1959
    132  CA        16.0900   23.3640   24.4230 C.3   220  TRP220      0.1771
    133  C         15.0550   22.7910   25.3610 C.2   220  TRP220      0.2620
    134  O         14.4440   23.4940   26.1700 O.2   220  TRP220     -0.2715
    135  CB        17.4570   22.7360   24.7520 C.3   220  TRP220      0.0590
    136  CG        18.0020   23.0900   26.1180 C.ar  220  TRP220      0.0006
    137  CD1       18.7230   24.2030   26.4570 C.ar  220  TRP220      0.0946
    138  CD2       17.8420   22.3340   27.3300 C.ar  220  TRP220      0.0152
    139  NE1       19.0170   24.1860   27.8040 N.ar  220  TRP220     -0.2442
    140  CE2       18.4880   23.0510   28.3610 C.ar  220  TRP220      0.0810
    141  CE3       17.2110   21.1220   27.6420 C.ar  220  TRP220      0.0012
    142  CZ2       18.5230   22.5950   29.6770 C.ar  220  TRP220      0.0191
    143  CZ3       17.2430   20.6700   28.9480 C.ar  220  TRP220      0.0001
    144  CH2       17.8950   21.4060   29.9520 C.ar  220  TRP220      0.0015
    145  N         14.8750   21.4860   25.2330 N.am  221  GLY221     -0.1940
    146  CA        13.9280   20.7610   26.0510 C.3   221  GLY221      0.2014
    147  C         14.1690   19.2930   25.7790 C.2   221  GLY221      0.2639
    148  O         15.0590   18.9300   25.0040 O.2   221  GLY221     -0.2714
    149  N         13.3930   18.4400   26.4240 N.am  222  GLU222     -0.1963
    150  CA        13.5330   17.0060   26.2260 C.3   222  GLU222      0.1733
    151  C         12.1480   16.5330   25.8270 C.2   222  GLU222      0.2617
    152  O         11.3040   16.2350   26.6690 O.2   222  GLU222     -0.2715
    153  CB        13.9990   16.3550   27.5270 C.3   222  GLU222      0.0429
    154  CG        15.3000   16.9650   28.0420 C.3   222  GLU222      0.1163
    155  CD        15.6790   16.4890   29.4320 C.2   222  GLU222      0.3649
    156  OE1       14.8840   16.6930   30.3800 O.co2 222  GLU222     -0.2457
    157  OE2       16.7820   15.9180   29.5790 O.co2 222  GLU222     -0.2457
    158  N         11.9210   16.4780   24.5230 N.am  223  GLY223     -0.1940
    159  CA        10.6160   16.0960   24.0300 C.3   223  GLY223      0.2014
    160  C          9.8340   17.3950   23.9120 C.2   223  GLY223      0.2639
    161  O         10.4330   18.4770   23.8980 O.2   223  GLY223     -0.2714
    162  N          8.5100   17.3050   23.8450 N.am  224  CYS224     -0.1967
    163  CA         7.6750   18.4920   23.7190 C.3   224  CYS224      0.1712
    164  C          6.3850   18.3590   24.5020 C.2   224  CYS224      0.2296
    165  O          5.5880   17.4640   24.2560 O.2   224  CYS224     -0.2864
    166  CB         7.3540   18.7550   22.2420 C.3   224  CYS224      0.0983
    167  SG         8.8270   19.1480   21.2440 S.3   224  CYS224     -0.0798
    168  N          5.8520   17.3960   27.5970 N.3   226  ARG226     -0.1245
    169  CA         5.7850   16.1650   28.3770 C.3   226  ARG226      0.1563
    170  C          5.5050   16.6240   29.7920 C.2   226  ARG226      0.2260
    171  O          6.0000   17.6680   30.2100 O.2   226  ARG226     -0.2867
    172  CB         7.1210   15.4160   28.3650 C.3   226  ARG226      0.0307
    173  CG         7.4640   14.7100   27.0620 C.3   226  ARG226      0.0489
    174  CD         8.7310   13.8810   27.2100 C.3   226  ARG226      0.2205
    175  NE         9.2090   13.3520   25.9340 N.pl3 226  ARG226     -0.0865
    176  CZ        10.3750   12.7290   25.7750 C.cat 226  ARG226      0.5346
    177  NH1       11.1840   12.5500   26.8100 N.pl3 226  ARG226      0.1354
    178  NH2       10.7420   12.3010   24.5760 N.pl3 226  ARG226      0.1354
    179  N         10.1470   20.8150   31.3400 N.3   230  TYR230     -0.1227
    180  CA         9.9440   22.2010   30.9570 C.3   230  TYR230      0.1736
    181  C         10.8270   22.6570   29.8070 C.2   230  TYR230      0.2596
    182  O         11.8230   22.0210   29.4680 O.2   230  TYR230     -0.2718
    183  CB        10.1840   23.1060   32.1630 C.3   230  TYR230      0.0548
    184  CG         9.3890   22.6830   33.3700 C.ar  230  TYR230     -0.0200
    185  CD1        9.8860   21.7310   34.2560 C.ar  230  TYR230     -0.0009
    186  CD2        8.1060   23.1690   33.5780 C.ar  230  TYR230     -0.0009
    187  CE1        9.1210   21.2770   35.3080 C.ar  230  TYR230      0.0417
    188  CE2        7.3380   22.7220   34.6260 C.ar  230  TYR230      0.0417
    189  CZ         7.8460   21.7790   35.4850 C.ar  230  TYR230      0.1957
    190  OH         7.0680   21.3440   36.5310 O.3   230  TYR230     -0.2866
    191  N         10.4490   23.7710   29.2010 N.am  231  GLY231     -0.1942
    192  CA        11.2350   24.3000   28.1130 C.3   231  GLY231      0.2014
    193  C         12.2660   25.2550   28.6780 C.2   231  GLY231      0.2639
    194  O         11.9770   25.9710   29.6390 O.2   231  GLY231     -0.2714
    195  N         13.4660   25.2580   28.1010 N.am  232  PHE232     -0.1959
    196  CA        14.5190   26.1580   28.5570 C.3   232  PHE232      0.1771
    197  C         14.8230   27.2210   27.5100 C.2   232  PHE232      0.2619
    198  O         14.7910   26.9650   26.3010 O.2   232  PHE232     -0.2715
    199  CB        15.7920   25.3800   28.9200 C.3   232  PHE232      0.0574
    200  CG        15.6560   24.5700   30.1810 C.ar  232  PHE232     -0.0200
    201  CD1       14.8380   23.4460   30.2160 C.ar  232  PHE232     -0.0042
    202  CD2       16.2940   24.9680   31.3510 C.ar  232  PHE232     -0.0042
    203  CE1       14.6590   22.7330   31.3980 C.ar  232  PHE232     -0.0003
    204  CE2       16.1200   24.2620   32.5330 C.ar  232  PHE232     -0.0003
    205  CZ        15.2970   23.1420   32.5560 C.ar  232  PHE232     -0.0000
    206  N         15.1270   28.4200   27.9960 N.am  233  TYR233     -0.1974
    207  CA        15.3880   29.5580   27.1450 C.3   233  TYR233      0.1639
    208  C         16.6670   30.2590   27.5400 C.2   233  TYR233      0.2290
    209  O         17.0760   30.2080   28.6950 O.2   233  TYR233     -0.2864
    210  CB        14.2270   30.5440   27.2730 C.3   233  TYR233      0.0560
    211  CG        12.8850   29.9260   26.9970 C.ar  233  TYR233     -0.0198
    212  CD1       12.3040   29.0200   27.8910 C.ar  233  TYR233     -0.0009
    213  CD2       12.2310   30.1740   25.8030 C.ar  233  TYR233     -0.0009
    214  CE1       11.1200   28.3800   27.5850 C.ar  233  TYR233      0.0417
    215  CE2       11.0550   29.5330   25.4940 C.ar  233  TYR233      0.0417
    216  CZ        10.5110   28.6380   26.3810 C.ar  233  TYR233      0.1957
    217  OH         9.3740   27.9650   26.0180 O.3   233  TYR233     -0.2866
@<TRIPOS>BOND
     1    26    25    2
     2    25    24    1
     3   110   109   ar
     4    24    27    1
     5    24    23    1
     6    27    28    1
     7   109   108    1
     8   109   111   ar
     9    14    13    2
    10   108   107    1
    11    28    30   ar
    12    28    29   ar
    13    11    12    1
    14    33    30   ar
    15    33    35   ar
    16    13    12    1
    17     4     3    2
    18    30    32   ar
    19   106   105    2
    20    29    31   ar
    21   105   104    1
    22    12    15    1
    23    35    36   ar
    24    15    16    1
    25   115   114    2
    26     3     2    1
    27   107   104    1
    28    32    31   ar
    29    32    34   ar
    30   104   103    1
    31    18    16   ar
    32    18    20   ar
    33    36    34   ar
    34   116   117    1
    35   116   113    1
    36    16    17   ar
    37   114   113    1
    38   112   113    1
    39     2     1    1
    40     2     5    1
    41     8    10   ar
    42     8     6   ar
    43   103    99   am
    44   100    99    2
    45    20    21   ar
    46    10     9   ar
    47    99    98    1
    48    17    19   ar
    49     5     6    1
    50     6     7   ar
    51   102   101    1
    52   102   167    1
    53    48    50   ar
    54    48    46   ar
    55    50    49   ar
    56   101    98    1
    57    21    19   ar
    58    21    22    1
    59     9     7   ar
    60    46    45   ar
    61    46    44   ar
    62    49    47   ar
    63    45    43   ar
    64    98    97    1
    65    44    47   ar
    66    44    42   ar
    67    43    42   ar
    68    42    41    1
    69    97    94   am
    70    41    38    1
    71   167   166    1
    72   121   120    2
    73   122   123    1
    74   122   124    1
    75   122   119    1
    76    94    93    1
    77    94    95    2
    78   166   163    1
    79    93    96    1
    80    93    92    1
    81   128   127    2
    82   120   119    1
    83   120   125   am
    84   118   119    1
    85    38    39    1
    86    38    37    1
    87    74    73    1
    88    87    86    2
    89    40    39    2
    90    75    73    1
    91   127   126    1
    92   127   131   am
    93    73    72    1
    94   126   125    1
    95   126   129    1
    96    92    86   am
    97    86    85    1
    98   163   162    1
    99   163   164    1
   100   162   160   am
   101   161   160    2
   102   160   159    1
   103   159   158    1
   104   165   164    2
   105   132   131    1
   106   132   135    1
   107   132   133    1
   108   158   151   am
   109   130   129    1
   110   178   176    1
   111   135   136    1
   112    72    69    1
   113   148   147    2
   114    85    84    1
   115    85    88    1
   116   145   133   am
   117   145   146    1
   118   133   134    2
   119    69    70    1
   120    69    68    1
   121   215   213   ar
   122   215   216   ar
   123    88    89    1
   124    89    91   ar
   125    89    90   ar
   126   176   175    2
   127   176   177    1
   128   147   146    1
   129   147   149   am
   130   213   211   ar
   131   151   150    1
   132   151   152    2
   133   175   174    1
   134    71    70    2
   135   217   216    1
   136    51    52    1
   137   136   137   ar
   138   136   138   ar
   139    68    62   am
   140   150   149    1
   141   150   153    1
   142   198   197    2
   143   216   214   ar
   144   137   139   ar
   145   211   210    1
   146   211   212   ar
   147   173   174    1
   148   173   172    1
   149   207   210    1
   150   207   208    1
   151   207   206    1
   152    62    63    2
   153    62    61    1
   154   138   141   ar
   155   138   140   ar
   156    52    53    1
   157    52    55    1
   158   197   206   am
   159   197   196    1
   160   153   154    1
   161   208   209    2
   162   214   212   ar
   163   168   169    1
   164   141   143   ar
   165    53    60   am
   166    53    54    2
   167    60    61    1
   168   139   140   ar
   169   154   155    1
   170    61    64    1
   171   195   196    1
   172   195   193   am
   173   192   193    1
   174   192   191    1
   175   140   142   ar
   176   172   169    1
   177   169   170    1
   178    55    56    1
   179   196   199    1
   180   193   194    2
   181   199   200    1
   182   143   144   ar
   183    66    65    2
   184   191   181   am
   185   155   157   ar
   186   155   156   ar
   187   182   181    2
   188    83    81    1
   189    64    65    1
   190   142   144   ar
   191   170   171    2
   192   181   180    1
   193    56    57    1
   194    65    67   am
   195    81    80    1
   196   200   201   ar
   197   200   202   ar
   198   201   203   ar
   199    82    80    1
   200    59    57   ar
   201    57    58   ar
   202   180   179    1
   203   180   183    1
   204    80    77    1
   205   202   204   ar
   206   203   205   ar
   207   183   184    1
   208    77    76    1
   209    77    78    1
   210   204   205   ar
   211    78    79    2
   212   184   186   ar
   213   184   185   ar
   214   186   188   ar
   215   185   187   ar
   216   188   189   ar
   217   187   189   ar
   218   189   190    1
