@<TRIPOS>MOLECULE
tmp/2anoA01.pdb
 136 130 0 0 0
SMALL
GASTEIGER

@<TRIPOS>ATOM
      1  N         24.3860   40.2300   13.3810 N.3     5  ILE5       -0.1231
      2  CA        25.4350   39.2420   13.1070 C.3     5  ILE5        0.1692
      3  C         26.7330   39.8480   13.6440 C.2     5  ILE5        0.2592
      4  O         27.0210   41.0080   13.3850 O.2     5  ILE5       -0.2718
      5  CB        25.5790   38.9180   11.6070 C.3     5  ILE5        0.0266
      6  CG1       26.5630   37.7580   11.4440 C.3     5  ILE5        0.0019
      7  CG2       26.0100   40.1610   10.8300 C.3     5  ILE5        0.0020
      8  CD1       26.4170   37.0110   10.1460 C.3     5  ILE5        0.0001
      9  N         27.4960   39.0730   14.4180 N.am    6  ALA6       -0.1966
     10  CA        28.7380   39.5840   14.9970 C.3     6  ALA6        0.1728
     11  C         29.7420   38.4980   15.4580 C.2     6  ALA6        0.2616
     12  O         29.4020   37.3120   15.5340 O.2     6  ALA6       -0.2715
     13  CB        28.3900   40.5220   16.1700 C.3     6  ALA6        0.0334
     14  N         30.9830   38.8990   15.7380 N.am    7  ALA7       -0.1977
     15  CA        32.0010   37.9610   16.2140 C.3     7  ALA7        0.1597
     16  C         32.4810   38.4580   17.5540 C.2     7  ALA7        0.2287
     17  O         33.1110   39.5140   17.6320 O.2     7  ALA7       -0.2864
     18  CB        33.1710   37.8800   15.2590 C.3     7  ALA7        0.0319
     19  N         38.9840   50.4470   15.5950 N.3    18  ASN18      -0.1225
     20  CA        38.1510   50.2890   14.4140 C.3    18  ASN18       0.1785
     21  C         38.4760   49.0460   13.6010 C.2    18  ASN18       0.2597
     22  O         38.3930   49.0650   12.3750 O.2    18  ASN18      -0.2718
     23  CB        38.2540   51.5320   13.5390 C.3    18  ASN18       0.1169
     24  CG        36.9140   51.9720   13.0240 C.2    18  ASN18       0.2627
     25  OD1       35.9290   51.9790   13.7650 O.2    18  ASN18      -0.2716
     26  ND2       36.8600   52.3560   11.7530 N.am   18  ASN18      -0.0877
     27  N         38.7990   47.9560   14.2930 N.am   19  ALA19      -0.1966
     28  CA        39.1350   46.6980   13.6260 C.3    19  ALA19       0.1728
     29  C         38.9850   45.4560   14.5090 C.2    19  ALA19       0.2616
     30  O         39.2870   45.4700   15.7070 O.2    19  ALA19      -0.2715
     31  CB        40.5540   46.7690   13.0750 C.3    19  ALA19       0.0334
     32  N         38.6020   44.3500   13.8740 N.am   20  MET20      -0.1977
     33  CA        38.4460   43.0410   14.5380 C.3    20  MET20       0.1605
     34  C         39.8790   42.4400   14.6220 C.2    20  MET20       0.2287
     35  O         40.4150   41.9250   13.6210 O.2    20  MET20      -0.2864
     36  CB        37.4870   42.1470   13.6960 C.3    20  MET20       0.0413
     37  CG        36.0340   42.6920   13.6660 C.3    20  MET20       0.0598
     38  SD        34.8350   42.1100   12.3920 S.3    20  MET20      -0.1393
     39  CE        35.1790   40.4110   12.3300 C.3    20  MET20       0.0692
     40  N         35.1690   32.7650    9.6450 N.3    27  ASP27      -0.1225
     41  CA        34.1320   33.6410   10.1220 C.3    27  ASP27       0.1805
     42  C         33.5680   34.5580    9.0560 C.2    27  ASP27       0.2597
     43  O         32.3400   34.6460    8.8760 O.2    27  ASP27      -0.2718
     44  CB        34.6460   34.4810   11.2710 C.3    27  ASP27       0.1424
     45  CG        33.6050   35.4200   11.7780 C.2    27  ASP27       0.3668
     46  OD1       32.5100   34.9410   12.1110 O.co2  27  ASP27      -0.2456
     47  OD2       33.8670   36.6310   11.8360 O.co2  27  ASP27      -0.2456
     48  N         34.4670   35.2570    8.3690 N.am   28  LEU28      -0.1979
     49  CA        34.0870   36.1830    7.3160 C.3    28  LEU28       0.1596
     50  C         33.3420   35.4380    6.2280 C.2    28  LEU28       0.2287
     51  O         32.3530   35.9270    5.6820 O.2    28  LEU28      -0.2864
     52  CB        35.3360   36.8460    6.7600 C.3    28  LEU28       0.0297
     53  CG        35.9630   37.7240    7.8450 C.3    28  LEU28       0.0022
     54  CD1       37.4700   37.5180    7.8830 C.3    28  LEU28       0.0001
     55  CD2       35.5990   39.1780    7.5920 C.3    28  LEU28       0.0001
     56  N         31.6260   32.9690    6.6860 N.3    30  TRP30      -0.1227
     57  CA        30.3170   32.7360    7.2540 C.3    30  TRP30       0.1737
     58  C         29.4510   34.0260    7.2610 C.2    30  TRP30       0.2595
     59  O         28.2180   33.9580    7.2740 O.2    30  TRP30      -0.2718
     60  CB        30.4870   32.0970    8.6370 C.3    30  TRP30       0.0564
     61  CG        29.5290   32.5330    9.6900 C.ar   30  TRP30       0.0003
     62  CD1       29.5580   33.6880   10.4160 C.ar   30  TRP30       0.0946
     63  CD2       28.3930   31.7870   10.1580 C.ar   30  TRP30       0.0152
     64  NE1       28.5080   33.7090   11.3060 N.ar   30  TRP30      -0.2442
     65  CE2       27.7800   32.5560   11.1690 C.ar   30  TRP30       0.0810
     66  CE3       27.8360   30.5480    9.8180 C.ar   30  TRP30       0.0012
     67  CZ2       26.6310   32.1220   11.8460 C.ar   30  TRP30       0.0191
     68  CZ3       26.7030   30.1190   10.4850 C.ar   30  TRP30       0.0001
     69  CH2       26.1080   30.9050   11.4910 C.ar   30  TRP30       0.0015
     70  N         30.1300   35.1760    7.2420 N.am   31  PHE31      -0.1976
     71  CA        29.4800   36.4820    7.2190 C.3    31  PHE31       0.1639
     72  C         28.9350   36.7300    5.8430 C.2    31  PHE31       0.2290
     73  O         27.7740   37.0550    5.6410 O.2    31  PHE31      -0.2864
     74  CB        30.4660   37.6100    7.5300 C.3    31  PHE31       0.0560
     75  CG        29.9190   39.0150    7.3530 C.ar   31  PHE31      -0.0200
     76  CD1       29.1710   39.5900    8.3670 C.ar   31  PHE31      -0.0042
     77  CD2       30.1410   39.7590    6.1960 C.ar   31  PHE31      -0.0042
     78  CE1       28.6410   40.8790    8.2430 C.ar   31  PHE31      -0.0003
     79  CE2       29.5970   41.0570    6.0540 C.ar   31  PHE31      -0.0003
     80  CZ        28.8430   41.6070    7.0910 C.ar   31  PHE31      -0.0000
     81  N         31.7870   51.8630   11.3770 N.3    46  THR46      -0.1218
     82  CA        31.8920   50.5790   10.6880 C.3    46  THR46       0.1862
     83  C         31.9300   50.7850    9.1690 C.2    46  THR46       0.2287
     84  O         32.4530   49.9530    8.4390 O.2    46  THR46      -0.2866
     85  CB        30.7050   49.6540   11.1040 C.3    46  THR46       0.1770
     86  OG1       30.8550   49.3250   12.4900 O.3    46  THR46      -0.2211
     87  CG2       30.6860   48.3490   10.3320 C.3    46  THR46       0.0375
     88  N         35.3290   51.9850    8.2260 N.3    49  SER49      -0.1202
     89  CA        36.2460   50.8490    8.3340 C.3    49  SER49       0.2020
     90  C         36.2860   49.9630    7.0800 C.2    49  SER49       0.2618
     91  O         37.3330   49.4250    6.7160 O.2    49  SER49      -0.2717
     92  CB        35.8960   50.0050    9.5660 C.3    49  SER49       0.2103
     93  OG        36.9780   49.1560    9.9250 O.3    49  SER49      -0.2182
     94  N         35.1580   49.8080    6.4090 N.am   50  ILE50      -0.1979
     95  CA        35.1430   49.0020    5.1990 C.3    50  ILE50       0.1595
     96  C         35.5330   49.8800    3.9900 C.2    50  ILE50       0.2287
     97  O         36.1700   49.3970    3.0600 O.2    50  ILE50      -0.2864
     98  CB        33.7560   48.3770    4.9990 C.3    50  ILE50       0.0276
     99  CG1       33.2940   47.7810    6.3220 C.3    50  ILE50       0.0022
    100  CG2       33.8160   47.2380    3.9700 C.3    50  ILE50       0.0022
    101  CD1       31.7980   47.4930    6.3840 C.3    50  ILE50       0.0001
    102  N         29.3770   46.8770    0.5640 N.3    54  LEU54      -0.1245
    103  CA        29.3930   45.4290    0.5480 C.3    54  LEU54       0.1561
    104  C         28.5620   44.9670   -0.6350 C.2    54  LEU54       0.2260
    105  O         27.3850   45.3010   -0.7690 O.2    54  LEU54      -0.2867
    106  CB        28.8020   44.8520    1.8180 C.3    54  LEU54       0.0270
    107  CG        29.5170   45.2160    3.1150 C.3    54  LEU54       0.0019
    108  CD1       28.7210   44.7330    4.3240 C.3    54  LEU54       0.0001
    109  CD2       30.9240   44.6240    3.1450 C.3    54  LEU54       0.0001
    110  N         24.9090   44.3870   10.7480 N.3    94  ILE94      -0.1245
    111  CA        26.3150   44.0450   10.9110 C.3    94  ILE94       0.1561
    112  C         26.8340   45.0700   11.8440 C.2    94  ILE94       0.2260
    113  O         28.0180   45.1280   12.1760 O.2    94  ILE94      -0.2867
    114  CB        27.0400   44.0500    9.5630 C.3    94  ILE94       0.0252
    115  CG1       27.1260   45.4790    9.0350 C.3    94  ILE94       0.0019
    116  CG2       26.3330   43.1650    8.5610 C.3    94  ILE94       0.0019
    117  CD1       27.9620   45.6130    7.7810 C.3    94  ILE94       0.0001
    118  N         24.4210   47.9630   17.7720 N.3   100  TYR100     -0.1241
    119  CA        23.8880   46.7130   18.2890 C.3   100  TYR100      0.1605
    120  C         22.9750   46.9740   19.4730 C.2   100  TYR100      0.2264
    121  O         21.9430   46.3200   19.6180 O.2   100  TYR100     -0.2867
    122  CB        25.0460   45.8070   18.7250 C.3   100  TYR100      0.0534
    123  CG        25.7750   45.1070   17.6010 C.ar  100  TYR100     -0.0201
    124  CD1       25.1010   44.4300   16.5830 C.ar  100  TYR100     -0.0009
    125  CD2       27.1720   45.0820   17.5980 C.ar  100  TYR100     -0.0009
    126  CE1       25.7950   43.7380   15.5970 C.ar  100  TYR100      0.0417
    127  CE2       27.8790   44.3930   16.6180 C.ar  100  TYR100      0.0417
    128  CZ        27.1850   43.7210   15.6200 C.ar  100  TYR100      0.1957
    129  OH        27.8850   43.0240   14.6570 O.3   100  TYR100     -0.2866
    130  N         29.4480   34.6120   16.3400 N.3   113  THR113     -0.1218
    131  CA        30.6550   33.8230   16.1310 C.3   113  THR113      0.1862
    132  C         31.4030   34.0240   17.4450 C.2   113  THR113      0.2287
    133  O         31.8930   35.1100   17.7330 O.2   113  THR113     -0.2866
    134  CB        31.4890   34.3670   14.9350 C.3   113  THR113      0.1770
    135  OG1       30.7650   34.1430   13.7230 O.3   113  THR113     -0.2211
    136  CG2       32.8500   33.6630   14.8450 C.3   113  THR113      0.0375
@<TRIPOS>BOND
     1   105   104    2
     2   104   103    1
     3   103   102    1
     4   103   106    1
     5   106   107    1
     6    97    96    2
     7   107   109    1
     8   107   108    1
     9   100    98    1
    10    96    95    1
    11    98    95    1
    12    98    99    1
    13    95    94    1
    14    73    72    2
    15    51    50    2
    16    72    71    1
    17    79    77   ar
    18    79    80   ar
    19    77    75   ar
    20    50    49    1
    21    99   101    1
    22    94    90   am
    23    56    57    1
    24    91    90    2
    25    52    49    1
    26    52    53    1
    27    90    89    1
    28    80    78   ar
    29    71    70    1
    30    71    74    1
    31    70    58   am
    32    57    58    1
    33    57    60    1
    34    58    59    2
    35    49    48    1
    36    75    74    1
    37    75    76   ar
    38    55    53    1
    39   117   115    1
    40    53    54    1
    41    88    89    1
    42    78    76   ar
    43    89    92    1
    44    48    42   am
    45    84    83    2
    46   116   114    1
    47    60    61    1
    48    43    42    2
    49   115   114    1
    50    42    41    1
    51    83    82    1
    52   114   111    1
    53    92    93    1
    54    40    41    1
    55    61    63   ar
    56    61    62   ar
    57    66    63   ar
    58    66    68   ar
    59    41    44    1
    60     8     6    1
    61    63    65   ar
    62    87    85    1
    63    62    64   ar
    64    68    69   ar
    65    82    85    1
    66    82    81    1
    67   110   111    1
    68     7     5    1
    69   111   112    1
    70    85    86    1
    71    65    64   ar
    72    65    67   ar
    73    44    45    1
    74     6     5    1
    75    69    67   ar
    76     5     2    1
    77    26    24   am
    78    45    47   ar
    79    45    46   ar
    80   112   113    2
    81    39    38    1
    82    22    21    2
    83    38    37    1
    84    24    23    1
    85    24    25    2
    86    31    28    1
    87     2     1    1
    88     2     3    1
    89     4     3    2
    90    23    20    1
    91    21    27   am
    92    21    20    1
    93    35    34    2
    94    28    27    1
    95    28    29    1
    96     3     9   am
    97    37    36    1
    98    36    33    1
    99   135   134    1
   100    32    29   am
   101    32    33    1
   102    20    19    1
   103     9    10    1
   104    29    30    2
   105    33    34    1
   106   129   128    1
   107   136   134    1
   108   134   131    1
   109    10    11    1
   110    10    13    1
   111    18    15    1
   112    11    12    2
   113    11    14   am
   114   126   128   ar
   115   126   124   ar
   116   128   127   ar
   117    14    15    1
   118   131   130    1
   119   131   132    1
   120    15    16    1
   121   124   123   ar
   122   127   125   ar
   123   132   133    2
   124    16    17    2
   125   125   123   ar
   126   123   122    1
   127   118   119    1
   128   119   122    1
   129   119   120    1
   130   120   121    2
