@<TRIPOS>MOLECULE
tmp/2anqA01.pdb
 150 145 0 0 0
SMALL
GASTEIGER

@<TRIPOS>ATOM
      1  N         24.1510   41.1350   13.6720 N.3     5  ILE5       -0.1231
      2  CA        25.2350   40.1880   13.4470 C.3     5  ILE5        0.1692
      3  C         26.5600   40.8020   13.9090 C.2     5  ILE5        0.2592
      4  O         26.9270   41.9460   13.5890 O.2     5  ILE5       -0.2718
      5  CB        25.2910   39.6400   12.0090 C.3     5  ILE5        0.0266
      6  CG1       26.3900   38.5770   11.9140 C.3     5  ILE5        0.0019
      7  CG2       25.5320   40.7500   10.9930 C.3     5  ILE5        0.0020
      8  CD1       26.4440   37.8670   10.5740 C.3     5  ILE5        0.0001
      9  N         27.2480   39.9530   14.6860 N.am    6  ALA6       -0.1966
     10  CA        28.5270   40.3480   15.2440 C.3     6  ALA6        0.1728
     11  C         29.4510   39.2220   15.6820 C.2     6  ALA6        0.2616
     12  O         29.0620   38.0870   15.8800 O.2     6  ALA6       -0.2715
     13  CB        28.2870   41.3060   16.4100 C.3     6  ALA6        0.0334
     14  N         30.7040   39.6260   15.8160 N.am    7  ALA7       -0.1977
     15  CA        31.7610   38.7660   16.2740 C.3     7  ALA7        0.1597
     16  C         32.2840   39.3330   17.6040 C.2     7  ALA7        0.2287
     17  O         32.7580   40.4630   17.6830 O.2     7  ALA7       -0.2864
     18  CB        32.8850   38.6560   15.2520 C.3     7  ALA7        0.0319
     19  N         38.6520   51.3240   16.0620 N.3    18  ASN18      -0.1225
     20  CA        37.8630   51.0890   14.8670 C.3    18  ASN18       0.1785
     21  C         38.2050   49.7630   14.1570 C.2    18  ASN18       0.2597
     22  O         38.0230   49.6690   12.9580 O.2    18  ASN18      -0.2718
     23  CB        38.0170   52.2490   13.8670 C.3    18  ASN18       0.1169
     24  CG        36.6800   52.7040   13.3210 C.2    18  ASN18       0.2627
     25  OD1       35.6240   52.3320   13.8470 O.2    18  ASN18      -0.2716
     26  ND2       36.7150   53.5200   12.2760 N.am   18  ASN18      -0.0877
     27  N         38.6950   48.7340   14.8390 N.am   19  ALA19      -0.1966
     28  CA        39.0160   47.5110   14.1220 C.3    19  ALA19       0.1728
     29  C         38.7350   46.2360   14.9010 C.2    19  ALA19       0.2616
     30  O         38.6070   46.2720   16.1110 O.2    19  ALA19      -0.2715
     31  CB        40.4650   47.5590   13.6750 C.3    19  ALA19       0.0334
     32  N         38.6510   45.1090   14.1990 N.am   20  MET20      -0.1977
     33  CA        38.4710   43.7920   14.8040 C.3    20  MET20       0.1605
     34  C         39.8730   43.1820   15.0490 C.2    20  MET20       0.2287
     35  O         40.5040   42.6840   14.1230 O.2    20  MET20      -0.2864
     36  CB        37.5900   42.8900   13.9230 C.3    20  MET20       0.0413
     37  CG        36.2490   43.5240   13.5780 C.3    20  MET20       0.0598
     38  SD        35.0890   42.3580   12.8590 S.3    20  MET20      -0.1393
     39  CE        35.6170   42.3570   11.1470 C.3    20  MET20       0.0692
     40  N         41.5360   40.7630   15.4640 N.3    22  TRP22      -0.1241
     41  CA        41.7850   39.3450   15.2030 C.3    22  TRP22       0.1605
     42  C         41.7570   39.0210   13.7200 C.2    22  TRP22       0.2264
     43  O         41.3390   39.8390   12.8980 O.2    22  TRP22      -0.2867
     44  CB        40.7520   38.4430   15.9250 C.3    22  TRP22       0.0550
     45  CG        39.3320   38.8330   15.6030 C.ar   22  TRP22       0.0003
     46  CD1       38.6910   38.6450   14.4180 C.ar   22  TRP22       0.0946
     47  CD2       38.3990   39.5060   16.4600 C.ar   22  TRP22       0.0152
     48  NE1       37.4180   39.1640   14.4760 N.ar   22  TRP22      -0.2442
     49  CE2       37.2130   39.7030   15.7150 C.ar   22  TRP22       0.0810
     50  CE3       38.4520   39.9680   17.7810 C.ar   22  TRP22       0.0012
     51  CZ2       36.0880   40.3440   16.2470 C.ar   22  TRP22       0.0191
     52  CZ3       37.3280   40.6070   18.3090 C.ar   22  TRP22       0.0001
     53  CH2       36.1670   40.7890   17.5440 C.ar   22  TRP22       0.0015
     54  N         35.1250   33.6910    9.8400 N.3    27  ASP27      -0.1225
     55  CA        34.0600   34.5670   10.3270 C.3    27  ASP27       0.1805
     56  C         33.6260   35.5230    9.2140 C.2    27  ASP27       0.2597
     57  O         32.4390   35.8270    9.0620 O.2    27  ASP27      -0.2718
     58  CB        34.5010   35.3830   11.5490 C.3    27  ASP27       0.1424
     59  CG        33.4420   36.3830   11.9800 C.2    27  ASP27       0.3668
     60  OD1       32.3020   35.9600   12.2500 O.co2  27  ASP27      -0.2456
     61  OD2       33.7440   37.5990   12.0300 O.co2  27  ASP27      -0.2456
     62  N         34.5840   36.0150    8.4420 N.am   28  LEU28      -0.1979
     63  CA        34.2130   36.8970    7.3380 C.3    28  LEU28       0.1596
     64  C         33.3480   36.1190    6.3460 C.2    28  LEU28       0.2287
     65  O         32.3760   36.6550    5.8260 O.2    28  LEU28      -0.2864
     66  CB        35.4600   37.4720    6.6670 C.3    28  LEU28       0.0297
     67  CG        36.0520   38.6830    7.4160 C.3    28  LEU28       0.0022
     68  CD1       35.1750   39.8940    7.2080 C.3    28  LEU28       0.0001
     69  CD2       36.1670   38.3890    8.9020 C.3    28  LEU28       0.0001
     70  N         31.3250   33.5190    7.0310 N.3    30  TRP30      -0.1227
     71  CA        30.0280   33.4150    7.6770 C.3    30  TRP30       0.1737
     72  C         29.2290   34.7180    7.5490 C.2    30  TRP30       0.2595
     73  O         28.0170   34.7010    7.3560 O.2    30  TRP30      -0.2718
     74  CB        30.2310   33.0100    9.1460 C.3    30  TRP30       0.0564
     75  CG        29.0780   33.2910   10.0710 C.ar   30  TRP30       0.0003
     76  CD1       28.8450   34.4460   10.7510 C.ar   30  TRP30       0.0946
     77  CD2       28.0280   32.3870   10.4410 C.ar   30  TRP30       0.0152
     78  NE1       27.7160   34.3230   11.5320 N.ar   30  TRP30      -0.2442
     79  CE2       27.1940   33.0660   11.3590 C.ar   30  TRP30       0.0810
     80  CE3       27.7090   31.0690   10.0890 C.ar   30  TRP30       0.0012
     81  CZ2       26.0610   32.4730   11.9320 C.ar   30  TRP30       0.0191
     82  CZ3       26.5880   30.4810   10.6560 C.ar   30  TRP30       0.0001
     83  CH2       25.7760   31.1810   11.5680 C.ar   30  TRP30       0.0015
     84  N         29.9260   35.8410    7.6650 N.am   31  PHE31      -0.1976
     85  CA        29.3070   37.1590    7.5710 C.3    31  PHE31       0.1639
     86  C         28.7190   37.4200    6.1830 C.2    31  PHE31       0.2290
     87  O         27.5530   37.8260    6.0290 O.2    31  PHE31      -0.2864
     88  CB        30.3340   38.2480    7.9180 C.3    31  PHE31       0.0560
     89  CG        29.8170   39.6340    7.6660 C.ar   31  PHE31      -0.0200
     90  CD1       29.0600   40.2740    8.6440 C.ar   31  PHE31      -0.0042
     91  CD2       30.0360   40.2840    6.4520 C.ar   31  PHE31      -0.0042
     92  CE1       28.5230   41.5400    8.4140 C.ar   31  PHE31      -0.0003
     93  CE2       29.5020   41.5490    6.2130 C.ar   31  PHE31      -0.0003
     94  CZ        28.7420   42.1770    7.1990 C.ar   31  PHE31      -0.0000
     95  N         31.7530   52.5590   11.5580 N.3    46  THR46      -0.1218
     96  CA        31.8210   51.2650   10.9370 C.3    46  THR46       0.1862
     97  C         31.8560   51.4860    9.4120 C.2    46  THR46       0.2287
     98  O         32.4900   50.7030    8.7060 O.2    46  THR46      -0.2866
     99  CB        30.6370   50.3390   11.3590 C.3    46  THR46       0.1770
    100  OG1       30.6730   50.1240   12.7820 O.3    46  THR46      -0.2211
    101  CG2       30.7470   48.9900   10.6530 C.3    46  THR46       0.0375
    102  N         35.4130   52.3360    8.5000 N.3    49  SER49      -0.1202
    103  CA        36.2410   51.1370    8.7600 C.3    49  SER49       0.2020
    104  C         36.3260   50.2140    7.5480 C.2    49  SER49       0.2618
    105  O         37.2620   49.4250    7.3970 O.2    49  SER49      -0.2717
    106  CB        35.6510   50.3780    9.9550 C.3    49  SER49       0.2103
    107  OG        36.6100   49.5230   10.5490 O.3    49  SER49      -0.2182
    108  N         35.3210   50.3770    6.6570 N.am   50  ILE50      -0.1979
    109  CA        35.1670   49.5530    5.4670 C.3    50  ILE50       0.1595
    110  C         35.5780   50.3480    4.2190 C.2    50  ILE50       0.2287
    111  O         36.0730   49.7090    3.2450 O.2    50  ILE50      -0.2864
    112  CB        33.7400   49.0150    5.3140 C.3    50  ILE50       0.0276
    113  CG1       33.0200   49.0320    6.6640 C.3    50  ILE50       0.0022
    114  CG2       33.7660   47.6090    4.7340 C.3    50  ILE50       0.0022
    115  CD1       32.6270   47.6610    7.1650 C.3    50  ILE50       0.0001
    116  N         29.6340   47.4920    0.8290 N.3    54  LEU54      -0.1245
    117  CA        29.6790   46.0400    0.8060 C.3    54  LEU54       0.1561
    118  C         28.9570   45.5830   -0.4740 C.2    54  LEU54       0.2260
    119  O         27.8260   45.9950   -0.7080 O.2    54  LEU54      -0.2867
    120  CB        29.0280   45.4420    2.0510 C.3    54  LEU54       0.0270
    121  CG        29.8070   45.7300    3.3340 C.3    54  LEU54       0.0019
    122  CD1       28.9630   45.3950    4.5620 C.3    54  LEU54       0.0001
    123  CD2       31.1250   44.9510    3.3400 C.3    54  LEU54       0.0001
    124  N         24.7990   45.4900   11.1600 N.3    94  ILE94      -0.1245
    125  CA        26.1820   45.0330   11.2600 C.3    94  ILE94       0.1561
    126  C         27.1420   45.9130   12.1520 C.2    94  ILE94       0.2260
    127  O         28.3710   45.8050   11.9760 O.2    94  ILE94      -0.2867
    128  CB        26.7840   44.8460    9.8160 C.3    94  ILE94       0.0252
    129  CG1       27.0550   46.2020    9.1610 C.3    94  ILE94       0.0019
    130  CG2       25.8560   44.0200    8.9320 C.3    94  ILE94       0.0019
    131  CD1       27.8640   46.1180    7.8830 C.3    94  ILE94       0.0001
    132  N         24.3850   48.7600   17.7090 N.3   100  TYR100     -0.1241
    133  CA        23.8540   47.4960   18.2070 C.3   100  TYR100      0.1605
    134  C         22.9110   47.7830   19.3500 C.2   100  TYR100      0.2264
    135  O         21.7950   47.2630   19.4140 O.2   100  TYR100     -0.2867
    136  CB        24.9690   46.5900   18.7250 C.3   100  TYR100      0.0534
    137  CG        25.7920   45.9140   17.6650 C.ar  100  TYR100     -0.0201
    138  CD1       25.1950   45.3880   16.5170 C.ar  100  TYR100     -0.0009
    139  CD2       27.1660   45.7420   17.8370 C.ar  100  TYR100     -0.0009
    140  CE1       25.9500   44.7080   15.5670 C.ar  100  TYR100      0.0417
    141  CE2       27.9230   45.0680   16.9010 C.ar  100  TYR100      0.0417
    142  CZ        27.3030   44.5470   15.7710 C.ar  100  TYR100      0.1957
    143  OH        28.0050   43.8320   14.8440 O.3   100  TYR100     -0.2866
    144  N         29.2820   35.3430   16.5180 N.3   113  THR113     -0.1218
    145  CA        30.4940   34.6000   16.3230 C.3   113  THR113      0.1862
    146  C         31.2690   34.7580   17.6120 C.2   113  THR113      0.2287
    147  O         31.8780   35.8000   17.8560 O.2   113  THR113     -0.2866
    148  CB        31.3300   35.0960   15.1510 C.3   113  THR113      0.1770
    149  OG1       30.5760   34.9690   13.9430 O.3   113  THR113     -0.2211
    150  CG2       32.6270   34.2920   15.0500 C.3   113  THR113      0.0375
@<TRIPOS>BOND
     1   119   118    2
     2   118   117    1
     3   117   116    1
     4   117   120    1
     5   120   121    1
     6   111   110    2
     7   121   123    1
     8   121   122    1
     9   110   109    1
    10   114   112    1
    11   112   109    1
    12   112   113    1
    13   109   108    1
    14    65    64    2
    15    87    86    2
    16    86    85    1
    17    93    91   ar
    18    93    94   ar
    19    64    63    1
    20    91    89   ar
    21   108   104   am
    22   113   115    1
    23    66    63    1
    24    66    67    1
    25    70    71    1
    26    94    92   ar
    27    68    67    1
    28    63    62    1
    29    73    72    2
    30   105   104    2
    31    67    69    1
    32   104   103    1
    33    72    84   am
    34    72    71    1
    35    85    84    1
    36    85    88    1
    37    89    88    1
    38    89    90   ar
    39    71    74    1
    40   131   129    1
    41    92    90   ar
    42    62    56   am
    43   102   103    1
    44    98    97    2
    45   103   106    1
    46   130   128    1
    47    57    56    2
    48    74    75    1
    49   129   128    1
    50    56    55    1
    51    97    96    1
    52   128   125    1
    53    54    55    1
    54   106   107    1
    55    75    77   ar
    56    75    76   ar
    57    80    77   ar
    58    80    82   ar
    59    55    58    1
    60    77    79   ar
    61     8     6    1
    62   101    99    1
    63    82    83   ar
    64    76    78   ar
    65    96    99    1
    66    96    95    1
    67     7     5    1
    68    39    38    1
    69   124   125    1
    70   125   126    1
    71    99   100    1
    72    79    78   ar
    73    79    81   ar
    74    58    59    1
    75    83    81   ar
    76     6     5    1
    77   127   126    2
    78    59    61   ar
    79    59    60   ar
    80     5     2    1
    81    26    24   am
    82    38    37    1
    83    43    42    2
    84    22    21    2
    85    24    25    2
    86    24    23    1
    87     2     1    1
    88     2     3    1
    89    37    36    1
    90     4     3    2
    91    31    28    1
    92    42    41    1
    93    23    20    1
    94     3     9   am
    95    36    33    1
    96   149   148    1
    97    28    27    1
    98    28    29    1
    99    35    34    2
   100    21    27   am
   101    21    20    1
   102    32    33    1
   103    32    29   am
   104    46    48   ar
   105    46    45   ar
   106    48    49   ar
   107     9    10    1
   108    33    34    1
   109   143   142    1
   110    20    19    1
   111    29    30    2
   112   150   148    1
   113   148   145    1
   114    41    40    1
   115    41    44    1
   116    10    11    1
   117    10    13    1
   118    18    15    1
   119   140   142   ar
   120   140   138   ar
   121    45    44    1
   122    45    47   ar
   123    11    14   am
   124    11    12    2
   125    49    51   ar
   126    49    47   ar
   127   142   141   ar
   128    14    15    1
   129    51    53   ar
   130    15    16    1
   131   145   144    1
   132   145   146    1
   133    47    50   ar
   134   138   137   ar
   135   141   139   ar
   136    53    52   ar
   137    16    17    2
   138   146   147    2
   139   137   139   ar
   140   137   136    1
   141   132   133    1
   142    50    52   ar
   143   133   136    1
   144   133   134    1
   145   134   135    2
