@<TRIPOS>MOLECULE
tmp/2ansA00.pdb
 204 188 0 0 0
SMALL
GASTEIGER

@<TRIPOS>ATOM
      1  N         -1.1870   26.7790   23.0320 N.3    16  PHE16      -0.1241
      2  CA        -0.3320   27.1600   21.9180 C.3    16  PHE16       0.1605
      3  C         -1.1030   27.1830   20.5970 C.2    16  PHE16       0.2264
      4  O         -0.8320   28.0160   19.7350 O.2    16  PHE16      -0.2867
      5  CB         0.8870   26.2400   21.8160 C.3    16  PHE16       0.0534
      6  CG         1.9320   26.7290   20.8490 C.ar   16  PHE16      -0.0203
      7  CD1        2.3850   28.0480   20.9020 C.ar   16  PHE16      -0.0042
      8  CD2        2.4540   25.8800   19.8730 C.ar   16  PHE16      -0.0042
      9  CE1        3.3390   28.5150   20.0000 C.ar   16  PHE16      -0.0003
     10  CE2        3.4120   26.3390   18.9640 C.ar   16  PHE16      -0.0003
     11  CZ         3.8530   27.6570   19.0290 C.ar   16  PHE16      -0.0000
     12  N         -3.2280   30.3650   20.3910 N.3    19  TYR19      -0.1227
     13  CA        -2.3500   31.5090   20.1710 C.3    19  TYR19       0.1736
     14  C         -1.9440   31.6120   18.6990 C.2    19  TYR19       0.2595
     15  O         -1.9940   32.6940   18.1100 O.2    19  TYR19      -0.2718
     16  CB        -1.1080   31.4160   21.0730 C.3    19  TYR19       0.0548
     17  CG        -0.0800   32.4900   20.8040 C.ar   19  TYR19      -0.0200
     18  CD1       -0.3500   33.8300   21.0780 C.ar   19  TYR19      -0.0009
     19  CD2        1.1430   32.1700   20.2120 C.ar   19  TYR19      -0.0009
     20  CE1        0.5730   34.8300   20.7600 C.ar   19  TYR19       0.0417
     21  CE2        2.0740   33.1610   19.8900 C.ar   19  TYR19       0.0417
     22  CZ         1.7810   34.4850   20.1650 C.ar   19  TYR19       0.1957
     23  OH         2.7010   35.4530   19.8430 O.3    19  TYR19      -0.2866
     24  N         -1.5330   30.4840   18.1210 N.am   20  MET20      -0.1979
     25  CA        -1.1370   30.4280   16.7160 C.3    20  MET20       0.1605
     26  C         -2.3140   30.8110   15.8220 C.2    20  MET20       0.2287
     27  O         -2.1450   31.4810   14.8040 O.2    20  MET20      -0.2864
     28  CB        -0.6480   29.0250   16.3530 C.3    20  MET20       0.0413
     29  CG         0.6170   28.6190   17.0570 C.3    20  MET20       0.0598
     30  SD         1.3780   27.1930   16.2840 S.3    20  MET20      -0.1393
     31  CE         0.4050   25.8650   16.9760 C.3    20  MET20       0.0692
     32  N         -2.6860   34.6290   15.7510 N.3    23  VAL23      -0.1245
     33  CA        -1.6750   35.3280   14.9650 C.3    23  VAL23       0.1561
     34  C         -1.9000   35.0830   13.4690 C.2    23  VAL23       0.2260
     35  O         -1.2910   35.7470   12.6250 O.2    23  VAL23      -0.2867
     36  CB        -0.2140   34.9670   15.3830 C.3    23  VAL23       0.0252
     37  CG1       -0.0080   35.2150   16.8590 C.3    23  VAL23       0.0019
     38  CG2        0.1190   33.5490   15.0360 C.3    23  VAL23       0.0019
     39  N         -1.8010   31.7810   11.8730 N.3    25  VAL25      -0.1245
     40  CA        -1.1520   30.5810   11.3380 C.3    25  VAL25       0.1561
     41  C         -2.1770   29.6390   10.6990 C.2    25  VAL25       0.2260
     42  O         -3.3050   29.5150   11.1790 O.2    25  VAL25      -0.2867
     43  CB        -0.3790   29.8150   12.4410 C.3    25  VAL25       0.0252
     44  CG1        0.3620   28.6240   11.8510 C.3    25  VAL25       0.0019
     45  CG2        0.5980   30.7380   13.1330 C.3    25  VAL25       0.0019
     46  N          3.3390   22.3530   13.8350 N.3    33  ALA33      -0.1245
     47  CA         4.0540   23.2380   14.7540 C.3    33  ALA33       0.1562
     48  C          3.7860   22.8660   16.2100 C.2    33  ALA33       0.2260
     49  O          4.6670   22.9960   17.0610 O.2    33  ALA33      -0.2867
     50  CB         3.6710   24.6900   14.4990 C.3    33  ALA33       0.0290
     51  N          5.7610   19.8500   17.6460 N.3    36  ALA36      -0.1245
     52  CA         7.1840   20.0740   17.8560 C.3    36  ALA36       0.1562
     53  C          7.5440   20.4810   19.2860 C.2    36  ALA36       0.2260
     54  O          6.8400   21.2710   19.9250 O.2    36  ALA36      -0.2867
     55  CB         7.6990   21.1120   16.8660 C.3    36  ALA36       0.0290
     56  N         10.4930   22.1670   20.5520 N.3    38  PRO38      -0.2116
     57  CA        11.7180   22.9210   20.2850 C.3    38  PRO38       0.1372
     58  C         12.6590   23.1330   21.4590 C.2    38  PRO38       0.2244
     59  O         12.2780   23.0150   22.6210 O.2    38  PRO38      -0.2868
     60  CB        11.1860   24.2470   19.7470 C.3    38  PRO38       0.0268
     61  CG         9.9350   24.4270   20.5250 C.3    38  PRO38       0.0207
     62  CD         9.3140   23.0510   20.4830 C.3    38  PRO38       0.0892
     63  N         15.2880   25.8960   22.9910 N.3    40  MET40      -0.1245
     64  CA        15.6790   27.2930   22.9590 C.3    40  MET40       0.1570
     65  C         17.1140   27.3810   23.4610 C.2    40  MET40       0.2261
     66  O         17.4390   26.8250   24.5090 O.2    40  MET40      -0.2867
     67  CB        14.7440   28.1010   23.8510 C.3    40  MET40       0.0387
     68  CG        14.7150   29.5770   23.5640 C.3    40  MET40       0.0595
     69  SD        13.4040   30.3350   24.5110 S.3    40  MET40      -0.1393
     70  CE        11.9910   30.0550   23.4390 C.3    40  MET40       0.0692
     71  N         16.4000   28.7130   18.1440 N.3    53  SER53      -0.1217
     72  CA        15.3310   27.7530   18.3960 C.3    53  SER53       0.1889
     73  C         15.4270   26.6400   17.3600 C.2    53  SER53       0.2288
     74  O         15.4170   26.9030   16.1620 O.2    53  SER53      -0.2866
     75  CB        13.9680   28.4430   18.3190 C.3    53  SER53       0.2089
     76  OG        12.9150   27.5360   18.6010 O.3    53  SER53      -0.2183
     77  N         13.9920   22.7770   15.9960 N.3    55  SER55      -0.1217
     78  CA        12.9290   21.7820   16.0060 C.3    55  SER55       0.1889
     79  C         12.7900   21.1170   14.6410 C.2    55  SER55       0.2288
     80  O         13.4970   21.4590   13.6920 O.2    55  SER55      -0.2866
     81  CB        11.5970   22.4310   16.3970 C.3    55  SER55       0.2089
     82  OG        11.1960   23.3980   15.4410 O.3    55  SER55      -0.2183
     83  N          9.9870   21.1770   12.9050 N.3    57  PHE57      -0.1227
     84  CA         9.1930   22.1480   12.1640 C.3    57  PHE57       0.1736
     85  C         10.0530   23.1790   11.4240 C.2    57  PHE57       0.2595
     86  O          9.9010   23.3660   10.2140 O.2    57  PHE57      -0.2718
     87  CB         8.2290   22.8380   13.1390 C.3    57  PHE57       0.0547
     88  CG         7.5500   24.0550   12.5810 C.ar   57  PHE57      -0.0202
     89  CD1        6.6640   23.9540   11.5130 C.ar   57  PHE57      -0.0042
     90  CD2        7.7770   25.3050   13.1480 C.ar   57  PHE57      -0.0042
     91  CE1        6.0120   25.0830   11.0190 C.ar   57  PHE57      -0.0003
     92  CE2        7.1310   26.4380   12.6630 C.ar   57  PHE57      -0.0003
     93  CZ         6.2450   26.3260   11.5960 C.ar   57  PHE57      -0.0000
     94  N         10.9510   23.8390   12.1540 N.am   58  LYS58      -0.1980
     95  CA        11.8290   24.8550   11.5750 C.3    58  LYS58       0.1596
     96  C         12.8650   25.3520   12.5810 C.2    58  LYS58       0.2287
     97  O         12.6290   25.3400   13.7880 O.2    58  LYS58      -0.2864
     98  CB        10.9970   26.0400   11.0680 C.3    58  LYS58       0.0298
     99  CG        11.7860   27.0850   10.2930 C.3    58  LYS58       0.0038
    100  CD        10.8620   28.1200    9.6680 C.3    58  LYS58       0.0206
    101  CE        11.6430   29.1940    8.9180 C.3    58  LYS58       0.1093
    102  NZ        10.7450   30.2370    8.3300 N.3    58  LYS58      -0.1314
    103  N         15.2180   28.5410   13.8070 N.3    60  THR60      -0.1218
    104  CA        15.3010   29.9980   13.7260 C.3    60  THR60       0.1862
    105  C         16.4260   30.5330   14.6010 C.2    60  THR60       0.2287
    106  O         16.9190   29.8390   15.4890 O.2    60  THR60      -0.2866
    107  CB        13.9800   30.6830   14.1330 C.3    60  THR60       0.1770
    108  OG1       13.6350   30.3140   15.4730 O.3    60  THR60      -0.2211
    109  CG2       12.8560   30.2900   13.1880 C.3    60  THR60       0.0375
    110  N          9.6600   35.5180   11.3770 N.3    74  THR74      -0.1203
    111  CA         9.2350   34.4890   12.3110 C.3    74  THR74       0.1994
    112  C          9.1460   33.1310   11.6290 C.2    74  THR74       0.2618
    113  O          9.1200   33.0420   10.4010 O.2    74  THR74      -0.2717
    114  CB         7.8840   34.8450   12.9500 C.3    74  THR74       0.1784
    115  OG1        6.8620   34.8350   11.9490 O.3    74  THR74      -0.2211
    116  CG2        7.9530   36.2310   13.5660 C.3    74  THR74       0.0376
    117  N          9.1240   32.0760   12.4360 N.am   75  ALA75      -0.1965
    118  CA         9.0390   30.7110   11.9300 C.3    75  ALA75       0.1728
    119  C          7.8050   30.5080   11.0510 C.2    75  ALA75       0.2616
    120  O          7.8710   29.7940   10.0470 O.2    75  ALA75      -0.2715
    121  CB         9.0400   29.7200   13.0850 C.3    75  ALA75       0.0334
    122  N          6.6890   31.1400   11.4160 N.am   76  ASP76      -0.1971
    123  CA         5.4650   31.0170   10.6310 C.3    76  ASP76       0.1709
    124  C          5.4540   31.9840    9.4430 C.2    76  ASP76       0.2293
    125  O          4.4040   32.2590    8.8600 O.2    76  ASP76      -0.2864
    126  CB         4.2220   31.1980   11.5080 C.3    76  ASP76       0.1436
    127  CG         4.0330   32.6190   11.9760 C.2    76  ASP76       0.3671
    128  OD1        4.9220   33.1490   12.6740 O.co2  76  ASP76      -0.2456
    129  OD2        2.9840   33.2050   11.6490 O.co2  76  ASP76      -0.2456
    130  N          6.2580   35.4900    9.1050 N.3    78  ARG78      -0.1245
    131  CA         5.7460   36.8460    9.1890 C.3    78  ARG78       0.1563
    132  C          6.9650   37.7700    9.2010 C.2    78  ARG78       0.2260
    133  O          7.9780   37.4490    9.8230 O.2    78  ARG78      -0.2867
    134  CB         4.9560   37.0440   10.4840 C.3    78  ARG78       0.0307
    135  CG         3.5260   36.5330   10.4720 C.3    78  ARG78       0.0489
    136  CD         2.9120   36.6440   11.8680 C.3    78  ARG78       0.2205
    137  NE         3.6850   35.8660   12.8370 N.pl3  78  ARG78      -0.0865
    138  CZ         4.0630   36.3000   14.0360 C.cat  78  ARG78       0.5346
    139  NH1        3.7380   37.5180   14.4480 N.pl3  78  ARG78       0.1354
    140  NH2        4.7960   35.5190   14.8140 N.pl3  78  ARG78       0.1354
    141  N          6.3320   42.2320   18.9660 N.3    95  GLN95      -0.1245
    142  CA         6.4110   42.1080   17.5140 C.3    95  GLN95       0.1566
    143  C          5.2630   42.8670   16.8750 C.2    95  GLN95       0.2260
    144  O          4.1030   42.6190   17.2030 O.2    95  GLN95      -0.2867
    145  CB         6.3140   40.6420   17.0900 C.3    95  GLN95       0.0367
    146  CG         7.4360   39.7610   17.6080 C.3    95  GLN95       0.0905
    147  CD         7.2420   38.2960   17.2600 C.2    95  GLN95       0.2608
    148  OE1        6.1220   37.8400   17.0160 O.2    95  GLN95      -0.2717
    149  NE2        8.3350   37.5490   17.2390 N.am   95  GLN95      -0.0878
    150  N          5.7860   38.5210   23.5500 N.3   104  ILE104     -0.1245
    151  CA         6.3800   37.2580   23.9570 C.3   104  ILE104      0.1561
    152  C          7.2900   37.5220   25.1590 C.2   104  ILE104      0.2260
    153  O          8.4020   38.0490   25.0260 O.2   104  ILE104     -0.2867
    154  CB         7.1810   36.6390   22.7950 C.3   104  ILE104      0.0252
    155  CG1        6.2840   36.5630   21.5510 C.3   104  ILE104      0.0019
    156  CG2        7.7250   35.2630   23.1910 C.3   104  ILE104      0.0019
    157  CD1        6.9530   36.0010   20.3310 C.3   104  ILE104      0.0001
    158  N          9.5140   36.2170   28.2410 N.3   106  ARG106     -0.1245
    159  CA        10.3340   35.0980   28.6900 C.3   106  ARG106      0.1563
    160  C         10.8360   35.4300   30.0930 C.2   106  ARG106      0.2260
    161  O         11.6530   36.3270   30.2640 O.2   106  ARG106     -0.2867
    162  CB        11.5180   34.8810   27.7370 C.3   106  ARG106      0.0307
    163  CG        11.1300   34.2910   26.3880 C.3   106  ARG106      0.0489
    164  CD        12.3220   34.1270   25.4480 C.3   106  ARG106      0.2205
    165  NE        12.1490   34.9480   24.2520 N.pl3 106  ARG106     -0.0865
    166  CZ        11.7530   34.4930   23.0670 C.cat 106  ARG106      0.5346
    167  NH1       11.4930   33.2060   22.8870 N.pl3 106  ARG106      0.1354
    168  NH2       11.5600   35.3420   22.0710 N.pl3 106  ARG106      0.1354
    169  N          7.5650   30.9520   29.2040 N.3   115  VAL115     -0.1245
    170  CA         7.3690   31.7640   28.0090 C.3   115  VAL115      0.1561
    171  C          5.8760   32.0050   27.7930 C.2   115  VAL115      0.2260
    172  O          5.1130   31.0740   27.5210 O.2   115  VAL115     -0.2867
    173  CB         7.9700   31.0820   26.7540 C.3   115  VAL115      0.0252
    174  CG1        7.8340   31.9920   25.5500 C.3   115  VAL115      0.0019
    175  CG2        9.4370   30.7290   26.9870 C.3   115  VAL115      0.0019
    176  N          3.1370   33.9310   25.5710 N.3   117  CYS117     -0.1235
    177  CA         2.8880   34.5930   24.2940 C.3   117  CYS117      0.1677
    178  C          1.4380   35.0830   24.3080 C.2   117  CYS117      0.2270
    179  O          0.5150   34.2780   24.4560 O.2   117  CYS117     -0.2867
    180  CB         3.0790   33.6080   23.1360 C.3   117  CYS117      0.0956
    181  SG         4.4890   32.4820   23.2430 S.3   117  CYS117     -0.0801
    182  N          4.3210   28.2670   27.7390 N.3   126  ARG126     -0.1245
    183  CA         5.2340   27.1690   27.4420 C.3   126  ARG126      0.1563
    184  C          6.3700   27.1700   28.4610 C.2   126  ARG126      0.2260
    185  O          7.1050   28.1460   28.5940 O.2   126  ARG126     -0.2867
    186  CB         5.7880   27.2870   26.0190 C.3   126  ARG126      0.0307
    187  CG         4.7240   27.5430   24.9620 C.3   126  ARG126      0.0489
    188  CD         5.2870   27.3840   23.5710 C.3   126  ARG126      0.2205
    189  NE         4.9550   26.0850   22.9870 N.pl3 126  ARG126     -0.0865
    190  CZ         5.6710   25.4830   22.0420 C.cat 126  ARG126      0.5346
    191  NH1        6.7770   26.0550   21.5760 N.pl3 126  ARG126      0.1354
    192  NH2        5.2570   24.3300   21.5300 N.pl3 126  ARG126      0.1354
    193  N          9.9190   25.8120   29.9260 N.3   128  TYR128     -0.1241
    194  CA        11.1820   25.2310   29.5030 C.3   128  TYR128      0.1605
    195  C         12.0350   24.8770   30.7040 C.2   128  TYR128      0.2264
    196  O         12.0830   25.6010   31.6990 O.2   128  TYR128     -0.2867
    197  CB        11.9680   26.1900   28.6060 C.3   128  TYR128      0.0534
    198  CG        11.4450   26.3090   27.1980 C.ar  128  TYR128     -0.0201
    199  CD1       10.2290   26.9300   26.9390 C.ar  128  TYR128     -0.0009
    200  CD2       12.1840   25.8270   26.1160 C.ar  128  TYR128     -0.0009
    201  CE1        9.7600   27.0740   25.6390 C.ar  128  TYR128      0.0417
    202  CE2       11.7240   25.9640   24.8120 C.ar  128  TYR128      0.0417
    203  CZ        10.5120   26.5920   24.5820 C.ar  128  TYR128      0.1957
    204  OH        10.0460   26.7610   23.3010 O.3   128  TYR128     -0.2866
@<TRIPOS>BOND
     1   102   101    1
     2   125   124    2
     3   101   100    1
     4   130   131    1
     5   131   132    1
     6   131   134    1
     7   132   133    2
     8   124   123    1
     9   100    99    1
    10   120   119    2
    11    86    85    2
    12    99    98    1
    13   113   112    2
    14   135   134    1
    15   135   136    1
    16   123   122    1
    17   123   126    1
    18    41    42    2
    19    41    40    1
    20    91    89   ar
    21    91    93   ar
    22   119   122   am
    23   119   118    1
    24    98    95    1
    25    40    39    1
    26    40    43    1
    27   110   111    1
    28    85    94   am
    29    85    84    1
    30   126   127    1
    31    89    88   ar
    32    95    94    1
    33    95    96    1
    34    93    92   ar
    35   112   111    1
    36   112   117   am
    37   129   127   ar
    38    44    43    1
    39   136   137    1
    40   118   117    1
    41   118   121    1
    42   115   114    1
    43   127   128   ar
    44    84    83    1
    45    84    87    1
    46   111   114    1
    47    43    45    1
    48    88    87    1
    49    88    90   ar
    50    96    97    2
    51    35    34    2
    52    92    90   ar
    53   137   138    2
    54   114   116    1
    55   109   107    1
    56    34    33    1
    57    80    79    2
    58   104   103    1
    59   104   107    1
    60   104   105    1
    61    46    47    1
    62   138   139    1
    63   138   140    1
    64   107   108    1
    65    50    47    1
    66   105   106    2
    67    79    78    1
    68    47    48    1
    69    27    26    2
    70    33    36    1
    71    33    32    1
    72    38    36    1
    73    36    37    1
    74    82    81    1
    75    26    25    1
    76    77    78    1
    77    78    81    1
    78    74    73    2
    79    48    49    2
    80    30    31    1
    81    30    29    1
    82    28    25    1
    83    28    29    1
    84    25    24    1
    85    55    52    1
    86   143   144    2
    87   143   142    1
    88   148   147    2
    89   145   142    1
    90   145   146    1
    91   149   147   am
    92   147   146    1
    93    73    72    1
    94   142   141    1
    95    51    52    1
    96    52    53    1
    97    15    14    2
    98    24    14   am
    99    71    72    1
   100    75    72    1
   101    75    76    1
   102    14    13    1
   103    10    11   ar
   104    10     8   ar
   105    11     9   ar
   106    53    54    2
   107     4     3    2
   108    60    57    1
   109    60    61    1
   110    23    22    1
   111     8     6   ar
   112    21    22   ar
   113    21    19   ar
   114     9     7   ar
   115    22    20   ar
   116    13    12    1
   117    13    16    1
   118    19    17   ar
   119    57    56    1
   120    57    58    1
   121   157   155    1
   122    62    61    1
   123    62    56    1
   124     3     2    1
   125    20    18   ar
   126    17    16    1
   127    17    18   ar
   128     6     7   ar
   129     6     5    1
   130    58    59    2
   131   192   190    1
   132   155   154    1
   133   191   190    1
   134     5     2    1
   135     2     1    1
   136   190   189    2
   137   168   166    1
   138   154   156    1
   139   154   151    1
   140   167   166    1
   141    64    63    1
   142    64    65    1
   143    64    67    1
   144   189   188    1
   145   166   165    2
   146   180   181    1
   147   180   177    1
   148   204   203    1
   149    70    69    1
   150    65    66    2
   151   150   151    1
   152    68    67    1
   153    68    69    1
   154   188   187    1
   155   151   152    1
   156   165   164    1
   157   177   178    1
   158   177   176    1
   159   178   179    2
   160   203   202   ar
   161   203   201   ar
   162   202   200   ar
   163   187   186    1
   164   153   152    2
   165   164   163    1
   166   174   173    1
   167   201   199   ar
   168   186   183    1
   169   200   198   ar
   170   163   162    1
   171   173   175    1
   172   173   170    1
   173   199   198   ar
   174   198   197    1
   175   183   182    1
   176   183   184    1
   177   172   171    2
   178   162   159    1
   179   171   170    1
   180   170   169    1
   181   158   159    1
   182   184   185    2
   183   197   194    1
   184   159   160    1
   185   194   193    1
   186   194   195    1
   187   160   161    2
   188   195   196    2
