@<TRIPOS>MOLECULE
tmp/2antB00.pdb
 75 73 0 0 0
SMALL
GASTEIGER

@<TRIPOS>ATOM
      1  N         -9.7700   18.8240   89.5970 N.3    17  MET17      -0.1245
      2  CA       -10.9590   18.8250   88.7820 C.3    17  MET17       0.1570
      3  C        -10.7140   18.2680   87.3900 C.2    17  MET17       0.2261
      4  O         -9.6350   18.4100   86.8120 O.2    17  MET17      -0.2867
      5  CB       -11.6320   20.2070   88.7370 C.3    17  MET17       0.0387
      6  CG       -12.8560   20.2930   89.6330 C.3    17  MET17       0.0595
      7  SD       -13.8420   21.7680   89.2990 S.3    17  MET17      -0.1393
      8  CE       -14.1590   21.5290   87.5350 C.3    17  MET17       0.0692
      9  N        -13.0040   17.9090   83.5940 N.3    19  PRO19      -0.2116
     10  CA       -14.2010   18.3470   82.8810 C.3    19  PRO19       0.1372
     11  C        -15.3150   17.3320   83.0250 C.2    19  PRO19       0.2244
     12  O        -16.4740   17.6780   83.2580 O.2    19  PRO19      -0.2868
     13  CB       -13.8380   18.4120   81.4000 C.3    19  PRO19       0.0268
     14  CG       -12.5660   17.6000   81.2330 C.3    19  PRO19       0.0207
     15  CD       -11.9930   17.3880   82.6270 C.3    19  PRO19       0.0892
     16  N         -3.2860   29.6880   75.1740 N.3   140  THR140     -0.1203
     17  CA        -3.8740   29.8920   76.4970 C.3   140  THR140      0.1994
     18  C         -4.2220   28.5480   77.1080 C.2   140  THR140      0.2618
     19  O         -4.8600   27.6920   76.4920 O.2   140  THR140     -0.2717
     20  CB        -5.1560   30.7300   76.4050 C.3   140  THR140      0.1784
     21  OG1       -4.8500   32.0810   76.1270 O.3   140  THR140     -0.2211
     22  CG2       -5.9940   30.5980   77.6620 C.3   140  THR140      0.0376
     23  N         -3.7440   28.3510   78.3210 N.am  141  PHE141     -0.1961
     24  CA        -3.9890   27.1310   79.0020 C.3   141  PHE141      0.1771
     25  C         -5.1290   27.2990   79.9940 C.2   141  PHE141      0.2620
     26  O         -5.2450   28.3270   80.6720 O.2   141  PHE141     -0.2715
     27  CB        -2.7200   26.6890   79.6890 C.3   141  PHE141      0.0574
     28  CG        -1.5480   26.3490   78.7710 C.ar  141  PHE141     -0.0200
     29  CD1       -0.6350   27.3460   78.4070 C.ar  141  PHE141     -0.0042
     30  CD2       -1.2660   25.0310   78.3870 C.ar  141  PHE141     -0.0042
     31  CE1        0.5160   27.0800   77.6570 C.ar  141  PHE141     -0.0003
     32  CE2       -0.1360   24.7440   77.6060 C.ar  141  PHE141     -0.0003
     33  CZ         0.7530   25.7660   77.2430 C.ar  141  PHE141     -0.0000
     34  N         -6.0100   26.3000   80.0800 N.am  142  ASN142     -0.1958
     35  CA        -7.1160   26.3640   81.0020 C.3   142  ASN142      0.1819
     36  C         -6.5890   26.5860   82.4060 C.2   142  ASN142      0.2621
     37  O         -5.5010   26.1550   82.7660 O.2   142  ASN142     -0.2715
     38  CB        -7.9650   25.0840   80.9120 C.3   142  ASN142      0.1195
     39  CG        -9.1310   25.1160   81.8750 C.2   142  ASN142      0.2630
     40  OD1       -8.9790   24.9710   83.1050 O.2   142  ASN142     -0.2716
     41  ND2      -10.3010   25.3340   81.2920 N.am  142  ASN142     -0.0877
     42  N         -7.3690   27.2730   83.1840 N.am  143  GLU143     -0.1963
     43  CA        -6.9970   27.5770   84.5430 C.3   143  GLU143      0.1733
     44  C         -6.7240   26.3220   85.3880 C.2   143  GLU143      0.2617
     45  O         -5.7030   26.2240   86.0960 O.2   143  GLU143     -0.2715
     46  CB        -8.0130   28.5850   85.1230 C.3   143  GLU143      0.0429
     47  CG        -9.3440   28.5190   84.3180 C.3   143  GLU143      0.1163
     48  CD        -9.4660   29.4930   83.1830 C.2   143  GLU143      0.3649
     49  OE1       -9.4210   30.7000   83.3270 O.co2 143  GLU143     -0.2457
     50  OE2       -9.6640   28.9030   82.0340 O.co2 143  GLU143     -0.2457
     51  N         -7.6220   25.3390   85.2890 N.am  144  THR144     -0.1951
     52  CA        -7.5040   24.0690   86.0260 C.3   144  THR144      0.1897
     53  C         -6.2590   23.2940   85.6240 C.2   144  THR144      0.2313
     54  O         -5.5140   22.7650   86.4540 O.2   144  THR144     -0.2863
     55  CB        -8.7420   23.1640   85.8980 C.3   144  THR144      0.1794
     56  OG1       -9.8820   23.9390   86.1230 O.3   144  THR144     -0.2208
     57  CG2       -8.6890   22.0570   86.9380 C.3   144  THR144      0.0378
     58  N         -8.4930   19.7710   74.7260 N.2   339  PRO339     -0.2571
     59  CA        -9.4560   20.7370   75.2240 C.3   339  PRO339      0.2026
     60  C         -8.8760   21.8140   76.1710 C.2   339  PRO339      0.2684
     61  O         -9.2450   22.9880   76.1100 O.2   339  PRO339     -0.2709
     62  CB       -10.5460   19.9190   75.9400 C.2   339  PRO339      0.0085
     63  CG       -10.1550   18.4550   75.8750 C.2   339  PRO339      0.0180
     64  CD        -8.7880   18.3940   75.1920 C.2   339  PRO339      0.0938
     65  N         -7.9650   21.4100   77.0600 N.am  340  GLY340     -0.1950
     66  CA        -7.3690   22.3010   78.0320 C.3   340  GLY340      0.1869
     67  C         -6.4830   23.3220   77.4010 C.2   340  GLY340      0.2309
     68  O         -5.8680   24.0990   78.1190 O.2   340  GLY340     -0.2863
     69  N         -7.6460   25.2900   74.4120 N.3   342  VAL342     -0.1245
     70  CA        -8.4370   26.1010   73.4940 C.3   342  VAL342      0.1561
     71  C         -7.7510   27.4570   73.4560 C.2   342  VAL342      0.2260
     72  O         -8.1180   28.3870   74.1740 O.2   342  VAL342     -0.2867
     73  CB        -9.8850   26.2370   73.9810 C.3   342  VAL342      0.0252
     74  CG1      -10.7770   26.8250   72.8940 C.3   342  VAL342      0.0019
     75  CG2      -10.4410   24.8900   74.4440 C.3   342  VAL342      0.0019
@<TRIPOS>BOND
     1    74    73    1
     2    71    70    1
     3    71    72    2
     4    70    73    1
     5    70    69    1
     6    73    75    1
     7    58    64    2
     8    58    59    1
     9    16    17    1
    10    64    63    1
    11    59    62    1
    12    59    60    1
    13    63    62    2
    14    61    60    2
    15    21    20    1
    16    60    65   am
    17    20    17    1
    18    20    22    1
    19    19    18    2
    20    17    18    1
    21    65    66    1
    22    18    23   am
    23    33    32   ar
    24    33    31   ar
    25    67    66    1
    26    67    68    2
    27    32    30   ar
    28    31    29   ar
    29    23    24    1
    30    30    28   ar
    31    29    28   ar
    32    28    27    1
    33    24    27    1
    34    24    25    1
    35    25    34   am
    36    25    26    2
    37    34    35    1
    38    38    35    1
    39    38    39    1
    40    35    36    1
    41    14    13    1
    42    14    15    1
    43    41    39   am
    44    13    10    1
    45    39    40    2
    46    50    48   ar
    47    36    37    2
    48    36    42   am
    49    15     9    1
    50    10    11    1
    51    10     9    1
    52    11    12    2
    53    48    49   ar
    54    48    47    1
    55    42    43    1
    56    47    46    1
    57    43    46    1
    58    43    44    1
    59    51    44   am
    60    51    52    1
    61    44    45    2
    62    53    52    1
    63    53    54    2
    64    55    52    1
    65    55    56    1
    66    55    57    1
    67     4     3    2
    68     3     2    1
    69     8     7    1
    70     5     2    1
    71     5     6    1
    72     2     1    1
    73     7     6    1
