@<TRIPOS>MOLECULE
tmp/2ao6A00.pdb
 154 145 0 0 0
SMALL
GASTEIGER

@<TRIPOS>ATOM
      1  N         30.5670    9.5820    9.5630 N.3    42  LEU42      -0.1231
      2  CA        30.7950    9.2770   10.9700 C.3    42  LEU42       0.1693
      3  C         31.3580   10.5170   11.6620 C.2    42  LEU42       0.2591
      4  O         30.9890   10.8360   12.7910 O.2    42  LEU42      -0.2718
      5  CB        31.7810    8.1110   11.1180 C.3    42  LEU42       0.0284
      6  CG        32.1720    7.7960   12.5660 C.3    42  LEU42       0.0019
      7  CD1       30.9230    7.5910   13.4020 C.3    42  LEU42       0.0001
      8  CD2       33.0570    6.5500   12.5990 C.3    42  LEU42       0.0001
      9  N         32.2630   11.2110   10.9790 N.am   43  VAL43      -0.1980
     10  CA        32.8620   12.4230   11.5290 C.3    43  VAL43       0.1595
     11  C         31.7530   13.4360   11.8230 C.2    43  VAL43       0.2287
     12  O         31.7350   14.0600   12.8840 O.2    43  VAL43      -0.2864
     13  CB        33.8690   13.0380   10.5360 C.3    43  VAL43       0.0276
     14  CG1       34.3210   14.4100   11.0270 C.3    43  VAL43       0.0022
     15  CG2       35.0660   12.1060   10.3800 C.3    43  VAL43       0.0022
     16  N         29.5310   12.5520   14.9080 N.3    46  VAL46      -0.1231
     17  CA        30.1170   12.8910   16.2040 C.3    46  VAL46       0.1692
     18  C         29.9180   14.3780   16.5190 C.2    46  VAL46       0.2591
     19  O         29.5140   14.7310   17.6180 O.2    46  VAL46      -0.2718
     20  CB        31.6310   12.5450   16.2490 C.3    46  VAL46       0.0266
     21  CG1       32.2270   12.9260   17.6130 C.3    46  VAL46       0.0020
     22  CG2       31.8220   11.0620   16.0070 C.3    46  VAL46       0.0020
     23  N         30.1780   15.2450   15.5450 N.am   47  LYS47      -0.1980
     24  CA        30.0280   16.6910   15.7420 C.3    47  LYS47       0.1596
     25  C         28.5700   17.0480   16.0350 C.2    47  LYS47       0.2287
     26  O         28.2740   17.9390   16.8330 O.2    47  LYS47      -0.2864
     27  CB        30.5240   17.4250   14.4910 C.3    47  LYS47       0.0298
     28  CG        31.9740   17.1000   14.1630 C.3    47  LYS47       0.0038
     29  CD        32.3460   17.4740   12.7340 C.3    47  LYS47       0.0206
     30  CE        32.2830   18.9710   12.4960 C.3    47  LYS47       0.1093
     31  NZ        32.6710   19.2980   11.0890 N.3    47  LYS47      -0.1314
     32  N         27.4540   15.5810   19.5910 N.3    50  LYS50      -0.1245
     33  CA        28.0380   16.3940   20.6490 C.3    50  LYS50       0.1561
     34  C         27.2120   17.6340   20.9520 C.2    50  LYS50       0.2260
     35  O         27.2580   18.1650   22.0640 O.2    50  LYS50      -0.2867
     36  CB        29.4630   16.8150   20.2670 C.3    50  LYS50       0.0271
     37  CG        30.4700   15.6760   20.3440 C.3    50  LYS50       0.0035
     38  CD        31.8420   16.0670   19.8090 C.3    50  LYS50       0.0206
     39  CE        32.4730   17.2040   20.5900 C.3    50  LYS50       0.1093
     40  NZ        33.8770   17.4330   20.1260 N.3    50  LYS50      -0.1314
     41  N         23.2250   15.4850   25.5140 N.3    55  PHE55      -0.1227
     42  CA        24.1540   14.4140   25.1570 C.3    55  PHE55       0.1736
     43  C         25.4160   14.3390   26.0140 C.2    55  PHE55       0.2595
     44  O         25.8460   13.2500   26.4060 O.2    55  PHE55      -0.2718
     45  CB        24.5760   14.5300   23.6910 C.3    55  PHE55       0.0547
     46  CG        25.4590   13.4000   23.2260 C.ar   55  PHE55      -0.0202
     47  CD1       24.9190   12.1570   22.9330 C.ar   55  PHE55      -0.0042
     48  CD2       26.8260   13.5820   23.0870 C.ar   55  PHE55      -0.0042
     49  CE1       25.7240   11.1170   22.5080 C.ar   55  PHE55      -0.0003
     50  CE2       27.6390   12.5450   22.6610 C.ar   55  PHE55      -0.0003
     51  CZ        27.0820   11.3100   22.3710 C.ar   55  PHE55      -0.0000
     52  N         26.0200   15.4890   26.2900 N.am   56  ARG56      -0.1980
     53  CA        27.2410   15.5150   27.0830 C.3    56  ARG56       0.1597
     54  C         26.9910   15.1910   28.5520 C.2    56  ARG56       0.2287
     55  O         27.9290   15.1280   29.3500 O.2    56  ARG56      -0.2864
     56  CB        27.9330   16.8690   26.9300 C.3    56  ARG56       0.0334
     57  CG        28.2530   17.1970   25.4750 C.3    56  ARG56       0.0492
     58  CD        29.7490   17.1870   25.1620 C.3    56  ARG56       0.2205
     59  NE        30.3780   15.8720   25.2320 N.pl3  56  ARG56      -0.0865
     60  CZ        31.6530   15.6480   24.9230 C.cat  56  ARG56       0.5346
     61  NH1       32.4250   16.6490   24.5230 N.pl3  56  ARG56       0.1354
     62  NH2       32.1640   14.4290   25.0230 N.pl3  56  ARG56       0.1354
     63  N         31.1590    9.6630   29.3370 N.3    60  VAL60      -0.1231
     64  CA        31.9370    9.6800   28.1080 C.3    60  VAL60       0.1692
     65  C         32.0360    8.3190   27.4190 C.2    60  VAL60       0.2592
     66  O         31.9940    8.2440   26.1920 O.2    60  VAL60      -0.2718
     67  CB        33.3560   10.2280   28.3490 C.3    60  VAL60       0.0266
     68  CG1       34.1760    9.2320   29.1570 C.3    60  VAL60       0.0020
     69  CG2       34.0200   10.5330   27.0140 C.3    60  VAL60       0.0020
     70  N         32.1660    7.2440   28.1920 N.am   61  ASP61      -0.1974
     71  CA        32.2520    5.9190   27.5840 C.3    61  ASP61       0.1709
     72  C         30.9270    5.5480   26.9260 C.2    61  ASP61       0.2293
     73  O         30.9060    4.7910   25.9560 O.2    61  ASP61      -0.2864
     74  CB        32.6270    4.8470   28.6150 C.3    61  ASP61       0.1436
     75  CG        34.0710    4.9640   29.0830 C.2    61  ASP61       0.3671
     76  OD1       34.8850    5.6070   28.3790 O.co2  61  ASP61      -0.2456
     77  OD2       34.3940    4.3990   30.1500 O.co2  61  ASP61      -0.2456
     78  N         28.8860    7.8360   25.6100 N.3    63  GLN63      -0.1231
     79  CA        28.7630    8.7080   24.4480 C.3    63  GLN63       0.1698
     80  C         29.3770    7.9560   23.2690 C.2    63  GLN63       0.2592
     81  O         28.7920    7.8730   22.1860 O.2    63  GLN63      -0.2718
     82  CB        29.5280   10.0130   24.6730 C.3    63  GLN63       0.0381
     83  CG        28.8320   11.0120   25.5780 C.3    63  GLN63       0.0905
     84  CD        29.6750   12.2460   25.8070 C.2    63  GLN63       0.2608
     85  OE1       30.2130   12.8200   24.8630 O.2    63  GLN63      -0.2717
     86  NE2       29.7950   12.6610   27.0610 N.am   63  GLN63      -0.0878
     87  N         30.5610    7.4040   23.5050 N.am   64  MET64      -0.1979
     88  CA        31.2800    6.6470   22.4920 C.3    64  MET64       0.1605
     89  C         30.4460    5.4640   22.0310 C.2    64  MET64       0.2287
     90  O         30.3090    5.2050   20.8310 O.2    64  MET64      -0.2864
     91  CB        32.5980    6.1200   23.0680 C.3    64  MET64       0.0413
     92  CG        33.6700    7.1700   23.2850 C.3    64  MET64       0.0598
     93  SD        34.4310    7.6600   21.7430 S.3    64  MET64      -0.1393
     94  CE        35.5970    6.3060   21.5130 C.3    64  MET64       0.0692
     95  N         27.1770    6.2120   19.9250 N.3    67  ILE67      -0.1231
     96  CA        27.5690    6.6780   18.6060 C.3    67  ILE67       0.1692
     97  C         28.0030    5.4900   17.7490 C.2    67  ILE67       0.2591
     98  O         27.5700    5.3510   16.6080 O.2    67  ILE67      -0.2718
     99  CB        28.7340    7.6940   18.6720 C.3    67  ILE67       0.0266
    100  CG1       28.2420    9.0180   19.2680 C.3    67  ILE67       0.0019
    101  CG2       29.2940    7.9450   17.2690 C.3    67  ILE67       0.0020
    102  CD1       29.3450   10.0500   19.4440 C.3    67  ILE67       0.0001
    103  N         28.8470    4.6250   18.3130 N.am   68  GLN68      -0.1979
    104  CA        29.3460    3.4690   17.5840 C.3    68  GLN68       0.1601
    105  C         28.2940    2.4160   17.2400 C.2    68  GLN68       0.2287
    106  O         28.4020    1.7490   16.2150 O.2    68  GLN68      -0.2864
    107  CB        30.4990    2.8260   18.3620 C.3    68  GLN68       0.0394
    108  CG        31.7450    3.6950   18.4140 C.3    68  GLN68       0.0908
    109  CD        32.8970    3.0260   19.1350 C.2    68  GLN68       0.2608
    110  OE1       32.7940    2.6970   20.3170 O.2    68  GLN68      -0.2717
    111  NE2       34.0040    2.8190   18.4230 N.am   68  GLN68      -0.0878
    112  N         40.4610    3.7020    8.6450 N.3   217  GLU217     -0.1231
    113  CA        40.8250    3.3010   10.0030 C.3   217  GLU217      0.1699
    114  C         39.7010    3.2380   11.0380 C.2   217  GLU217      0.2592
    115  O         39.4810    2.1850   11.6390 O.2   217  GLU217     -0.2718
    116  CB        41.9520    4.1970   10.5170 C.3   217  GLU217      0.0402
    117  CG        42.5060    3.8090   11.8730 C.3   217  GLU217      0.1161
    118  CD        43.2060    2.4630   11.8650 C.2   217  GLU217      0.3649
    119  OE1       43.7630    2.0890   10.8050 O.co2 217  GLU217     -0.2457
    120  OE2       43.1920    1.7830   12.9160 O.co2 217  GLU217     -0.2457
    121  N         38.9990    4.3480   11.2650 N.am  218  MET218     -0.1979
    122  CA        37.9220    4.3560   12.2560 C.3   218  MET218      0.1605
    123  C         36.8450    3.3140   12.0000 C.2   218  MET218      0.2287
    124  O         36.4130    2.6240   12.9240 O.2   218  MET218     -0.2864
    125  CB        37.2520    5.7250   12.3450 C.3   218  MET218      0.0413
    126  CG        37.9330    6.7000   13.2760 C.3   218  MET218      0.0598
    127  SD        36.8100    8.0250   13.7370 S.3   218  MET218     -0.1393
    128  CE        36.3500    8.6410   12.1080 C.3   218  MET218      0.0692
    129  N         37.8680   -0.3710   12.6680 N.3   221  GLU221     -0.1231
    130  CA        37.8710   -0.6320   14.0990 C.3   221  GLU221      0.1699
    131  C         36.4650   -0.8050   14.6540 C.2   221  GLU221      0.2592
    132  O         36.2120   -1.7350   15.4100 O.2   221  GLU221     -0.2718
    133  CB        38.6020    0.4930   14.8410 C.3   221  GLU221      0.0402
    134  CG        38.8040    0.2350   16.3200 C.3   221  GLU221      0.1161
    135  CD        39.9920    0.9940   16.8810 C.2   221  GLU221      0.3649
    136  OE1       40.0730    2.2240   16.6760 O.co2 221  GLU221     -0.2457
    137  OE2       40.8480    0.3620   17.5360 O.co2 221  GLU221     -0.2457
    138  N         35.5450    0.0780   14.2810 N.am  222  ILE222     -0.1980
    139  CA        34.1740   -0.0450   14.7660 C.3   222  ILE222      0.1595
    140  C         33.5540   -1.3590   14.3070 C.2   222  ILE222      0.2287
    141  O         32.8560   -2.0340   15.0660 O.2   222  ILE222     -0.2864
    142  CB        33.2780    1.1070   14.2490 C.3   222  ILE222      0.0276
    143  CG1       33.5960    2.4000   14.9990 C.3   222  ILE222      0.0022
    144  CG2       31.8100    0.7380   14.4120 C.3   222  ILE222      0.0022
    145  CD1       32.7150    3.5640   14.5760 C.3   222  ILE222      0.0001
    146  N         32.8850   -3.2430   17.6170 N.3   226  GLN226     -0.1245
    147  CA        31.5140   -2.9790   18.0330 C.3   226  GLN226      0.1566
    148  C         30.4470   -3.7550   17.2580 C.2   226  GLN226      0.2260
    149  O         29.5330   -4.3240   17.8530 O.2   226  GLN226     -0.2867
    150  CB        31.2140   -1.4770   17.9270 C.3   226  GLN226      0.0367
    151  CG        32.2440   -0.5610   18.5960 C.3   226  GLN226      0.0905
    152  CD        32.5440   -0.9470   20.0270 C.2   226  GLN226      0.2608
    153  OE1       31.7030   -1.5240   20.7170 O.2   226  GLN226     -0.2717
    154  NE2       33.7460   -0.6140   20.4910 N.am  226  GLN226     -0.0878
@<TRIPOS>BOND
     1   112   113    1
     2     1     2    1
     3   113   116    1
     4   113   114    1
     5    15    13    1
     6   116   117    1
     7    13    14    1
     8    13    10    1
     9   119   118   ar
    10     2     5    1
    11     2     3    1
    12     9    10    1
    13     9     3   am
    14   114   121   am
    15   114   115    2
    16    31    30    1
    17     5     6    1
    18   121   122    1
    19    10    11    1
    20     3     4    2
    21    11    12    2
    22   118   117    1
    23   118   120   ar
    24   123   122    1
    25   123   124    2
    26   128   127    1
    27   122   125    1
    28   125   126    1
    29    30    29    1
    30     6     8    1
    31     6     7    1
    32   129   130    1
    33    29    28    1
    34   126   127    1
    35   130   131    1
    36   130   133    1
    37    28    27    1
    38   142   144    1
    39   142   139    1
    40   142   143    1
    41   138   131   am
    42   138   139    1
    43   140   139    1
    44   140   141    2
    45    27    24    1
    46   145   143    1
    47   131   132    2
    48   133   134    1
    49    16    17    1
    50    23    24    1
    51    23    18   am
    52    24    25    1
    53    22    20    1
    54    25    26    2
    55    17    20    1
    56    17    18    1
    57   106   105    2
    58    20    21    1
    59   134   135    1
    60    18    19    2
    61    98    97    2
    62   136   135   ar
    63   135   137   ar
    64   105   104    1
    65   148   149    2
    66   148   147    1
    67   101    99    1
    68   104   103    1
    69   104   107    1
    70   146   147    1
    71    97   103   am
    72    97    96    1
    73   150   147    1
    74   150   151    1
    75   107   108    1
    76   108   109    1
    77   111   109   am
    78   151   152    1
    79    96    99    1
    80    96    95    1
    81    99   100    1
    82   109   110    2
    83   100   102    1
    84    32    33    1
    85    38    37    1
    86    38    39    1
    87   152   154   am
    88   152   153    2
    89    40    39    1
    90    36    37    1
    91    36    33    1
    92    33    34    1
    93    90    89    2
    94    34    35    2
    95    94    93    1
    96    93    92    1
    97    89    88    1
    98    81    80    2
    99    51    49   ar
   100    51    50   ar
   101    88    91    1
   102    88    87    1
   103    49    47   ar
   104    50    48   ar
   105    47    46   ar
   106    91    92    1
   107    48    46   ar
   108    46    45    1
   109    80    87   am
   110    80    79    1
   111    45    42    1
   112    79    82    1
   113    79    78    1
   114    61    60    1
   115    82    83    1
   116    85    84    2
   117    60    62    1
   118    60    59    2
   119    42    41    1
   120    42    43    1
   121    58    59    1
   122    58    57    1
   123    57    56    1
   124    83    84    1
   125    84    86   am
   126    73    72    2
   127    43    52   am
   128    43    44    2
   129    66    65    2
   130    52    53    1
   131    72    71    1
   132    56    53    1
   133    69    67    1
   134    53    54    1
   135    65    64    1
   136    65    70   am
   137    71    70    1
   138    71    74    1
   139    64    67    1
   140    64    63    1
   141    67    68    1
   142    76    75   ar
   143    54    55    2
   144    74    75    1
   145    75    77   ar
