@<TRIPOS>MOLECULE
tmp/2aoaB01.pdb
 93 93 0 0 0
SMALL
GASTEIGER

@<TRIPOS>ATOM
      1  N         50.9060   13.4450    9.0840 N.3    39  LEU39      -0.1245
      2  CA        50.4460   12.0580    9.0340 C.3    39  LEU39       0.1561
      3  C         51.3990   11.1560    9.7770 C.2    39  LEU39       0.2260
      4  O         52.5940   11.3100    9.8310 O.2    39  LEU39      -0.2867
      5  CB        50.2780   11.6000    7.5320 C.3    39  LEU39       0.0270
      6  CG        49.4240   12.6320    6.8130 C.3    39  LEU39       0.0019
      7  CD1       49.3520   12.5540    5.3910 C.3    39  LEU39       0.0001
      8  CD2       47.9680   12.6420    7.3640 C.3    39  LEU39       0.0001
      9  N         54.3240   14.3640    5.5800 N.3    48  LEU48      -0.1231
     10  CA        53.3480   15.3010    5.0240 C.3    48  LEU48       0.1693
     11  C         52.9590   14.8020    3.6590 C.2    48  LEU48       0.2592
     12  O         51.8310   14.9530    3.2900 O.2    48  LEU48      -0.2718
     13  CB        53.8990   16.7200    4.8500 C.3    48  LEU48       0.0284
     14  CG        54.4320   17.5380    5.9700 C.3    48  LEU48       0.0019
     15  CD1       54.6530   18.9830    5.3970 C.3    48  LEU48       0.0001
     16  CD2       53.2850   17.5120    7.0290 C.3    48  LEU48       0.0001
     17  N         53.8770   14.1750    2.9210 N.am   49  TRP49      -0.1962
     18  CA        53.5350   13.8740    1.4900 C.3    49  TRP49       0.1771
     19  C         53.9240   12.4240    1.2630 C.2    49  TRP49       0.2619
     20  O         54.8470   11.9540    1.7860 O.2    49  TRP49      -0.2715
     21  CB        54.2090   14.8510    0.5490 C.3    49  TRP49       0.0590
     22  CG        53.8730   16.3940    0.7320 C.ar   49  TRP49       0.0006
     23  CD1       54.5940   17.3630    1.2470 C.ar   49  TRP49       0.0946
     24  CD2       52.7090   16.9660    0.2650 C.ar   49  TRP49       0.0152
     25  NE1       53.9080   18.5390    1.2390 N.ar   49  TRP49      -0.2442
     26  CE2       52.7470   18.3330    0.5950 C.ar   49  TRP49       0.0810
     27  CE3       51.5440   16.4170   -0.2590 C.ar   49  TRP49       0.0012
     28  CZ2       51.7200   19.2090    0.3060 C.ar   49  TRP49       0.0191
     29  CZ3       50.5320   17.2580   -0.6060 C.ar   49  TRP49       0.0001
     30  CH2       50.6140   18.6720   -0.2790 C.ar   49  TRP49       0.0015
     31  N         53.3470   11.9240    0.2140 N.am   50  VAL50      -0.1963
     32  CA        53.6930   10.6260   -0.4190 C.3    50  VAL50       0.1727
     33  C         54.5330   10.9710   -1.7160 C.2    50  VAL50       0.2616
     34  O         53.9720   11.4240   -2.7980 O.2    50  VAL50      -0.2715
     35  CB        52.4810    9.7610   -0.7430 C.3    50  VAL50       0.0290
     36  CG1       53.0440    8.4420   -1.4640 C.3    50  VAL50       0.0023
     37  CG2       51.7680    9.4330    0.5140 C.3    50  VAL50       0.0023
     38  N         55.8610   10.9220   -1.5520 N.am   51  VAL51      -0.1963
     39  CA        56.7100   11.5530   -2.6120 C.3    51  VAL51       0.1727
     40  C         56.9610   10.4020   -3.6460 C.2    51  VAL51       0.2616
     41  O         57.9650    9.7650   -3.5930 O.2    51  VAL51      -0.2715
     42  CB        57.9750   12.1140   -1.9470 C.3    51  VAL51       0.0290
     43  CG1       58.9220   12.8570   -2.9640 C.3    51  VAL51       0.0023
     44  CG2       57.6380   13.1150   -0.7990 C.3    51  VAL51       0.0023
     45  N         56.0320   10.2070   -4.5650 N.am   52  LYS52      -0.1963
     46  CA        56.1930    9.2340   -5.5930 C.3    52  LYS52       0.1728
     47  C         55.4660    9.7030   -6.7360 C.2    52  LYS52       0.2616
     48  O         54.5430   10.4330   -6.5780 O.2    52  LYS52      -0.2715
     49  CB        55.6940    7.8550   -5.2290 C.3    52  LYS52       0.0311
     50  CG        56.0800    7.2270   -3.8740 C.3    52  LYS52       0.0038
     51  CD        55.2150    6.0420   -3.4440 C.3    52  LYS52       0.0206
     52  CE        55.8760    5.3380   -2.2210 C.3    52  LYS52       0.1093
     53  NZ        55.2980    3.9240   -1.9090 N.3    52  LYS52      -0.1314
     54  N         55.8490    9.2180   -7.9190 N.am   53  PHE53      -0.1960
     55  CA        55.4550    9.7110   -9.1870 C.3    53  PHE53       0.1771
     56  C         55.0030    8.7350  -10.1490 C.2    53  PHE53       0.2619
     57  O         55.3990    7.5390  -10.1110 O.2    53  PHE53      -0.2715
     58  CB        56.7300   10.3890   -9.7710 C.3    53  PHE53       0.0574
     59  CG        57.3480   11.3270   -8.8250 C.ar   53  PHE53      -0.0200
     60  CD1       56.8450   12.6140   -8.7060 C.ar   53  PHE53      -0.0042
     61  CD2       58.4330   10.9320   -8.0030 C.ar   53  PHE53      -0.0042
     62  CE1       57.3730   13.4890   -7.7490 C.ar   53  PHE53      -0.0003
     63  CE2       58.9060   11.7680   -7.0950 C.ar   53  PHE53      -0.0003
     64  CZ        58.3910   13.1040   -6.9990 C.ar   53  PHE53      -0.0000
     65  N         54.1610    9.1820  -11.0600 N.am   54  ASN54      -0.1972
     66  CA        53.6770    8.3390  -12.1500 C.3    54  ASN54       0.1688
     67  C         54.5720    8.0120  -13.3050 C.2    54  ASN54       0.2292
     68  O         54.3160    7.0290  -13.9930 O.2    54  ASN54      -0.2864
     69  CB        52.3420    8.8530  -12.6960 C.3    54  ASN54       0.1181
     70  CG        51.2520    7.8330  -12.3560 C.2    54  ASN54       0.2629
     71  OD1       50.7170    7.0100  -13.1770 O.2    54  ASN54      -0.2716
     72  ND2       51.0450    7.7560  -11.1290 N.am   54  ASN54      -0.0877
     73  N         58.4720   13.1010  -14.1750 N.3    58  GLU58      -0.1245
     74  CA        58.0880   13.7470  -13.0250 C.3    58  GLU58       0.1567
     75  C         59.0480   13.5580  -11.9840 C.2    58  GLU58       0.2260
     76  O         59.4380   14.5220  -11.2730 O.2    58  GLU58      -0.2867
     77  CB        56.6510   13.2110  -12.5290 C.3    58  GLU58       0.0388
     78  CG        55.4910   13.5290  -13.4220 C.3    58  GLU58       0.1160
     79  CD        54.1640   12.7690  -12.9350 C.2    58  GLU58       0.3649
     80  OE1       53.8580   12.6520  -11.6310 O.co2  58  GLU58      -0.2457
     81  OE2       53.4360   12.2740  -13.8170 O.co2  58  GLU58      -0.2457
     82  N         60.8610   16.7180  -10.3430 N.3    62  TYR62      -0.1241
     83  CA        60.8910   16.9150   -8.9220 C.3    62  TYR62       0.1605
     84  C         62.2620   17.1390   -8.5340 C.2    62  TYR62       0.2264
     85  O         62.5500   18.0980   -7.8770 O.2    62  TYR62      -0.2867
     86  CB        60.3590   15.6950   -8.1530 C.3    62  TYR62       0.0534
     87  CG        60.2900   15.8990   -6.6990 C.ar   62  TYR62      -0.0201
     88  CD1       59.3000   16.6570   -6.1220 C.ar   62  TYR62      -0.0009
     89  CD2       61.1100   15.2260   -5.9030 C.ar   62  TYR62      -0.0009
     90  CE1       59.2650   16.7690   -4.7300 C.ar   62  TYR62       0.0417
     91  CE2       61.1060   15.3640   -4.5640 C.ar   62  TYR62       0.0417
     92  CZ        60.1760   16.1410   -3.9880 C.ar   62  TYR62       0.1957
     93  OH        60.1320   16.1470   -2.5810 O.3    62  TYR62      -0.2866
@<TRIPOS>BOND
     1    73    74    1
     2    68    67    2
     3    81    79   ar
     4    78    79    1
     5    78    77    1
     6    67    66    1
     7    71    70    2
     8    74    77    1
     9    74    75    1
    10    79    80   ar
    11    69    70    1
    12    69    66    1
    13    70    72   am
    14    66    65    1
    15    75    76    2
    16    65    56   am
    17    82    83    1
    18    56    57    2
    19    56    55    1
    20    58    55    1
    21    58    59    1
    22    55    54    1
    23    83    84    1
    24    83    86    1
    25    59    60   ar
    26    59    61   ar
    27    60    62   ar
    28    84    85    2
    29    86    87    1
    30    61    63   ar
    31    54    47   am
    32    62    64   ar
    33    63    64   ar
    34    47    48    2
    35    47    46    1
    36    87    88   ar
    37    87    89   ar
    38    88    90   ar
    39    89    91   ar
    40    46    49    1
    41    46    45    1
    42    49    50    1
    43    90    92   ar
    44    45    40   am
    45    91    92   ar
    46    92    93    1
    47    50    51    1
    48    40    41    2
    49    40    39    1
    50    51    52    1
    51    43    42    1
    52    34    33    2
    53    39    42    1
    54    39    38    1
    55    52    53    1
    56    42    44    1
    57    33    38   am
    58    33    32    1
    59    36    35    1
    60    35    32    1
    61    35    37    1
    62    29    30   ar
    63    29    27   ar
    64    32    31    1
    65    30    28   ar
    66    27    24   ar
    67    31    19   am
    68    24    26   ar
    69    24    22   ar
    70    28    26   ar
    71    21    22    1
    72    21    18    1
    73    26    25   ar
    74    22    23   ar
    75    25    23   ar
    76    19    18    1
    77    19    20    2
    78    18    17    1
    79    17    11   am
    80    12    11    2
    81    11    10    1
    82    13    10    1
    83    13    14    1
    84    10     9    1
    85     7     6    1
    86    15    14    1
    87    14    16    1
    88     6     8    1
    89     6     5    1
    90     5     2    1
    91     2     1    1
    92     2     3    1
    93     3     4    2
