@<TRIPOS>MOLECULE
tmp/2aoaB00.pdb
 121 120 0 0 0
SMALL
GASTEIGER

@<TRIPOS>ATOM
      1  N         51.3060   22.0800   16.3510 N.3    19  ARG19      -0.1231
      2  CA        50.3220   22.0050   17.3790 C.3    19  ARG19       0.1694
      3  C         49.5300   20.7240   17.3230 C.2    19  ARG19       0.2591
      4  O         49.9390   19.7710   16.6290 O.2    19  ARG19      -0.2718
      5  CB        49.3140   23.0700   17.0770 C.3    19  ARG19       0.0321
      6  CG        48.5100   22.7880   15.8540 C.3    19  ARG19       0.0489
      7  CD        47.5730   23.9630   15.5190 C.3    19  ARG19       0.2205
      8  NE        47.0180   23.9960   14.1470 N.pl3  19  ARG19      -0.0865
      9  CZ        45.8830   23.4370   13.7590 C.cat  19  ARG19       0.5346
     10  NH1       45.0620   22.7600   14.5880 N.pl3  19  ARG19       0.1354
     11  NH2       45.5180   23.5620   12.5040 N.pl3  19  ARG19       0.1354
     12  N         48.4390   20.7500   18.1290 N.am   20  GLU20      -0.1979
     13  CA        47.1260   19.9950   18.0500 C.3    20  GLU20       0.1602
     14  C         45.7840   20.7150   17.5690 C.2    20  GLU20       0.2287
     15  O         45.6110   21.9600   17.4520 O.2    20  GLU20      -0.2864
     16  CB        46.7850   19.4330   19.4030 C.3    20  GLU20       0.0415
     17  CG        47.3300   18.0520   19.6430 C.3    20  GLU20       0.1163
     18  CD        48.8080   18.1620   19.9700 C.2    20  GLU20       0.3649
     19  OE1       49.3880   19.0480   19.3120 O.co2  20  GLU20      -0.2457
     20  OE2       49.3530   17.3990   20.8260 O.co2  20  GLU20      -0.2457
     21  N         47.8990   13.8110   17.9260 N.3    22  ASP22      -0.1239
     22  CA        47.7370   13.9910   16.4930 C.3    22  ASP22       0.1674
     23  C         48.1640   15.4550   16.1770 C.2    22  ASP22       0.2266
     24  O         47.5670   16.3210   16.7200 O.2    22  ASP22      -0.2867
     25  CB        46.2400   13.8350   16.2510 C.3    22  ASP22       0.1410
     26  CG        45.9330   13.6580   14.8380 C.2    22  ASP22       0.3668
     27  OD1       46.6420   12.7840   14.2360 O.co2  22  ASP22      -0.2456
     28  OD2       45.0390   14.3300   14.2580 O.co2  22  ASP22      -0.2456
     29  N         49.3600   19.0070   13.5600 N.3    24  SER24      -0.1217
     30  CA        48.9370   19.8030   12.4920 C.3    24  SER24       0.1889
     31  C         50.0700   20.9040   12.4040 C.2    24  SER24       0.2288
     32  O         50.6530   21.2390   13.3860 O.2    24  SER24      -0.2866
     33  CB        47.5130   20.3610   12.8160 C.3    24  SER24       0.2089
     34  OG        46.4450   19.6410   12.1760 O.3    24  SER24      -0.2183
     35  N         48.1080   28.4580    6.0400 N.3    34  GLN34      -0.1231
     36  CA        47.9660   27.0850    5.4850 C.3    34  GLN34       0.1698
     37  C         48.0810   26.0810    6.5300 C.2    34  GLN34       0.2592
     38  O         48.8820   26.1940    7.4270 O.2    34  GLN34      -0.2718
     39  CB        49.0490   26.9010    4.4180 C.3    34  GLN34       0.0381
     40  CG        48.6930   27.5320    3.0950 C.3    34  GLN34       0.0905
     41  CD        49.4160   27.1230    1.8280 C.2    34  GLN34       0.2608
     42  OE1       50.2560   26.2240    1.7660 O.2    34  GLN34      -0.2717
     43  NE2       49.0590   27.8340    0.7740 N.am   34  GLN34      -0.0878
     44  N         47.3180   25.0190    6.4710 N.am   35  HIS35      -0.1962
     45  CA        47.3270   23.9640    7.5460 C.3    35  HIS35       0.1787
     46  C         47.5640   22.5890    6.8740 C.2    35  HIS35       0.2620
     47  O         46.9950   22.3070    5.8710 O.2    35  HIS35      -0.2715
     48  CB        46.0190   23.9240    8.3630 C.3    35  HIS35       0.0785
     49  CG        45.7120   25.2370    9.0340 C.ar   35  HIS35       0.0821
     50  ND1       46.3210   25.6110   10.2120 N.ar   35  HIS35      -0.2267
     51  CD2       44.9310   26.2700    8.6540 C.ar   35  HIS35       0.1154
     52  CE1       45.8860   26.8250   10.5360 C.ar   35  HIS35       0.1986
     53  NE2       45.0490   27.2470    9.6030 N.ar   35  HIS35      -0.2212
     54  N         48.5730   21.8770    7.3610 N.am   36  PHE36      -0.1960
     55  CA        49.0190   20.5470    6.8550 C.3    36  PHE36       0.1771
     56  C         48.7530   19.6040    7.9520 C.2    36  PHE36       0.2619
     57  O         49.0610   19.8230    9.0570 O.2    36  PHE36      -0.2715
     58  CB        50.5260   20.6130    6.4870 C.3    36  PHE36       0.0574
     59  CG        50.8310   21.6350    5.3160 C.ar   36  PHE36      -0.0200
     60  CD1       50.9210   21.2410    3.9560 C.ar   36  PHE36      -0.0042
     61  CD2       51.0770   22.9520    5.5840 C.ar   36  PHE36      -0.0042
     62  CE1       51.1820   22.0640    2.9670 C.ar   36  PHE36      -0.0003
     63  CE2       51.2390   23.8450    4.5170 C.ar   36  PHE36      -0.0003
     64  CZ        51.3350   23.4410    3.2690 C.ar   36  PHE36      -0.0000
     65  N         48.2180   18.4320    7.6600 N.am   37  LYS37      -0.1977
     66  CA        48.2390   17.3800    8.6960 C.3    37  LYS37       0.1596
     67  C         49.5020   16.6040    8.7620 C.2    37  LYS37       0.2287
     68  O         49.9860   16.2100    7.7740 O.2    37  LYS37      -0.2864
     69  CB        47.0780   16.3380    8.3690 C.3    37  LYS37       0.0298
     70  CG        46.8090   15.4170    9.5510 C.3    37  LYS37       0.0038
     71  CD        45.7900   15.9860   10.2410 C.3    37  LYS37       0.0206
     72  CE        46.2950   16.6250   11.4750 C.3    37  LYS37       0.1093
     73  NZ        45.5020   16.0580   12.7240 N.3    37  LYS37      -0.1314
     74  N         50.9060   13.4450    9.0840 N.3    39  LEU39      -0.1245
     75  CA        50.4460   12.0580    9.0340 C.3    39  LEU39       0.1561
     76  C         51.3990   11.1560    9.7770 C.2    39  LEU39       0.2260
     77  O         52.5940   11.3100    9.8310 O.2    39  LEU39      -0.2867
     78  CB        50.2780   11.6000    7.5320 C.3    39  LEU39       0.0270
     79  CG        49.4240   12.6320    6.8130 C.3    39  LEU39       0.0019
     80  CD1       49.3520   12.5540    5.3910 C.3    39  LEU39       0.0001
     81  CD2       47.9680   12.6420    7.3640 C.3    39  LEU39       0.0001
     82  N         54.9590   12.0530    8.2890 N.3    47  PHE47      -0.1227
     83  CA        55.1230   12.5570    6.9510 C.3    47  PHE47       0.1736
     84  C         54.0790   13.5600    6.6100 C.2    47  PHE47       0.2595
     85  O         53.0330   13.6040    7.2890 O.2    47  PHE47      -0.2718
     86  CB        55.1660   11.4660    5.9280 C.3    47  PHE47       0.0547
     87  CG        53.9110   10.6200    5.8120 C.ar   47  PHE47      -0.0202
     88  CD1       53.1180   10.7160    4.7160 C.ar   47  PHE47      -0.0042
     89  CD2       53.6470    9.6710    6.7500 C.ar   47  PHE47      -0.0042
     90  CE1       52.0580    9.9650    4.5440 C.ar   47  PHE47      -0.0003
     91  CE2       52.5340    8.8730    6.6090 C.ar   47  PHE47      -0.0003
     92  CZ        51.7150    9.0490    5.5140 C.ar   47  PHE47      -0.0000
     93  N         54.3240   14.3640    5.5800 N.am   48  LEU48      -0.1966
     94  CA        53.3480   15.3010    5.0240 C.3    48  LEU48       0.1728
     95  C         52.9590   14.8020    3.6590 C.2    48  LEU48       0.2616
     96  O         51.8310   14.9530    3.2900 O.2    48  LEU48      -0.2715
     97  CB        53.8990   16.7200    4.8500 C.3    48  LEU48       0.0311
     98  CG        54.4320   17.5380    5.9700 C.3    48  LEU48       0.0022
     99  CD1       54.6530   18.9830    5.3970 C.3    48  LEU48       0.0001
    100  CD2       53.2850   17.5120    7.0290 C.3    48  LEU48       0.0001
    101  N         53.8770   14.1750    2.9210 N.am   49  TRP49      -0.1960
    102  CA        53.5350   13.8740    1.4900 C.3    49  TRP49       0.1771
    103  C         53.9240   12.4240    1.2630 C.2    49  TRP49       0.2616
    104  O         54.8470   11.9540    1.7860 O.2    49  TRP49      -0.2715
    105  CB        54.2090   14.8510    0.5490 C.3    49  TRP49       0.0590
    106  CG        53.8730   16.3940    0.7320 C.ar   49  TRP49       0.0006
    107  CD1       54.5940   17.3630    1.2470 C.ar   49  TRP49       0.0946
    108  CD2       52.7090   16.9660    0.2650 C.ar   49  TRP49       0.0152
    109  NE1       53.9080   18.5390    1.2390 N.ar   49  TRP49      -0.2442
    110  CE2       52.7470   18.3330    0.5950 C.ar   49  TRP49       0.0810
    111  CE3       51.5440   16.4170   -0.2590 C.ar   49  TRP49       0.0012
    112  CZ2       51.7200   19.2090    0.3060 C.ar   49  TRP49       0.0191
    113  CZ3       50.5320   17.2580   -0.6060 C.ar   49  TRP49       0.0001
    114  CH2       50.6140   18.6720   -0.2790 C.ar   49  TRP49       0.0015
    115  N         53.3470   11.9240    0.2140 N.am   50  VAL50      -0.2030
    116  CA        53.6930   10.6260   -0.4190 C.3    50  VAL50       0.1282
    117  C         54.5330   10.9710   -1.7160 C.3    50  VAL50       0.2035
    118  O         53.9720   11.4240   -2.7980 O.3    50  VAL50      -0.2185
    119  CB        52.4810    9.7610   -0.7430 C.3    50  VAL50       0.0226
    120  CG1       53.0440    8.4420   -1.4640 C.3    50  VAL50       0.0018
    121  CG2       51.7680    9.4330    0.5140 C.3    50  VAL50       0.0018
@<TRIPOS>BOND
     1   118   117    1
     2   117   116    1
     3   120   119    1
     4   119   116    1
     5   119   121    1
     6   113   114   ar
     7   113   111   ar
     8   116   115    1
     9   114   112   ar
    10   111   108   ar
    11   115   103   am
    12   108   110   ar
    13   108   106   ar
    14   112   110   ar
    15   105   106    1
    16   105   102    1
    17   110   109   ar
    18   106   107   ar
    19    43    41   am
    20   109   107   ar
    21   103   102    1
    22   103   104    2
    23   102   101    1
    24    42    41    2
    25    41    40    1
    26   101    95   am
    27    62    64   ar
    28    62    60   ar
    29    40    39    1
    30    64    63   ar
    31    96    95    2
    32    95    94    1
    33    60    59   ar
    34    39    36    1
    35    63    61   ar
    36    90    88   ar
    37    90    92   ar
    38    88    87   ar
    39    97    94    1
    40    97    98    1
    41    94    93    1
    42    59    61   ar
    43    59    58    1
    44    80    79    1
    45    99    98    1
    46    36    35    1
    47    36    37    1
    48    92    91   ar
    49    93    84   am
    50    87    86    1
    51    87    89   ar
    52    47    46    2
    53    86    83    1
    54    98   100    1
    55    44    37   am
    56    44    45    1
    57    58    55    1
    58    37    38    2
    59    91    89   ar
    60    84    83    1
    61    84    85    2
    62    79    81    1
    63    79    78    1
    64    55    54    1
    65    55    56    1
    66    46    54   am
    67    46    45    1
    68    83    82    1
    69    78    75    1
    70    45    48    1
    71    65    56   am
    72    65    66    1
    73    68    67    2
    74    56    57    2
    75    48    49    1
    76    69    66    1
    77    69    70    1
    78    51    49   ar
    79    51    53   ar
    80    66    67    1
    81    49    50   ar
    82    75    74    1
    83    75    76    1
    84    70    71    1
    85    53    52   ar
    86    76    77    2
    87    50    52   ar
    88    71    72    1
    89    72    73    1
    90    34    33    1
    91    31    30    1
    92    31    32    2
    93    30    33    1
    94    30    29    1
    95    11     9    1
    96     9     8    2
    97     9    10    1
    98     8     7    1
    99    27    26   ar
   100    28    26   ar
   101    26    25    1
   102     7     6    1
   103     6     5    1
   104    23    22    1
   105    23    24    2
   106    25    22    1
   107     1     2    1
   108    22    21    1
   109     4     3    2
   110     5     2    1
   111     3     2    1
   112     3    12   am
   113    15    14    2
   114    14    13    1
   115    13    12    1
   116    13    16    1
   117    19    18   ar
   118    16    17    1
   119    17    18    1
   120    18    20   ar
