@<TRIPOS>MOLECULE
tmp/2aobC02.pdb
 98 97 0 0 0
SMALL
GASTEIGER

@<TRIPOS>ATOM
      1  N         31.1500   50.1840   10.1440 N.3     1  LYS1       -0.1245
      2  CA        30.4560   49.3230   11.1380 C.3     1  LYS1        0.1561
      3  C         28.9720   49.7330   11.4390 C.2     1  LYS1        0.2260
      4  O         28.6640   50.0340   12.5810 O.2     1  LYS1       -0.2867
      5  CB        31.2850   49.3300   12.4410 C.3     1  LYS1        0.0271
      6  CG        30.6820   48.6550   13.6610 C.3     1  LYS1        0.0035
      7  CD        30.8200   47.1540   13.5500 C.3     1  LYS1        0.0206
      8  CE        30.5530   46.5340   14.9110 C.3     1  LYS1        0.1093
      9  NZ        29.1340   46.4500   15.1890 N.3     1  LYS1       -0.1314
     10  N         24.8870   49.2860   12.2920 N.3     3  HIS3       -0.1241
     11  CA        24.0870   48.2560   12.9800 C.3     3  HIS3        0.1621
     12  C         22.6010   48.6210   13.0110 C.2     3  HIS3        0.2264
     13  O         22.0100   48.7890   14.1050 O.2     3  HIS3       -0.2867
     14  CB        24.6470   47.9890   14.4000 C.3     3  HIS3        0.0745
     15  CG        24.9970   49.2170   15.1620 C.ar    3  HIS3        0.0817
     16  ND1       26.2740   49.7480   15.1980 N.ar    3  HIS3       -0.2268
     17  CD2       24.2290   50.0400   15.9210 C.ar    3  HIS3        0.1154
     18  CE1       26.2730   50.8300   15.9480 C.ar    3  HIS3        0.1986
     19  NE2       25.0470   51.0310   16.3940 N.ar    3  HIS3       -0.2212
     20  N         20.1880   47.0350   12.5740 N.3     5  TRP5       -0.1227
     21  CA        19.4120   45.8750   13.1410 C.3     5  TRP5        0.1737
     22  C         19.3380   45.9430   14.6830 C.2     5  TRP5        0.2595
     23  O         18.6180   45.1780   15.3060 O.2     5  TRP5       -0.2718
     24  CB        19.9510   44.4890   12.6560 C.3     5  TRP5        0.0564
     25  CG        21.4230   44.4400   12.5780 C.ar    5  TRP5        0.0003
     26  CD1       22.1970   44.5710   11.4200 C.ar    5  TRP5        0.0946
     27  CD2       22.3420   44.4140   13.6700 C.ar    5  TRP5        0.0152
     28  NE1       23.5130   44.5650   11.7550 N.ar    5  TRP5       -0.2442
     29  CE2       23.6460   44.4520   13.1130 C.ar    5  TRP5        0.0810
     30  CE3       22.2000   44.2860   15.0680 C.ar    5  TRP5        0.0012
     31  CZ2       24.7760   44.4100   13.8840 C.ar    5  TRP5        0.0191
     32  CZ3       23.3250   44.2590   15.8440 C.ar    5  TRP5        0.0001
     33  CH2       24.6230   44.2950   15.2480 C.ar    5  TRP5        0.0015
     34  N         20.0620   46.8810   15.2680 N.am    6  PHE6       -0.1976
     35  CA        20.2120   46.9330   16.7340 C.3     6  PHE6        0.1639
     36  C         19.2430   47.9730   17.3090 C.2     6  PHE6        0.2290
     37  O         19.2670   49.1750   16.9510 O.2     6  PHE6       -0.2864
     38  CB        21.6590   47.2280   17.1670 C.3     6  PHE6        0.0560
     39  CG        21.8310   47.3420   18.6830 C.ar    6  PHE6       -0.0200
     40  CD1       21.8180   46.2140   19.4560 C.ar    6  PHE6       -0.0042
     41  CD2       22.0120   48.5790   19.3060 C.ar    6  PHE6       -0.0042
     42  CE1       21.9540   46.3000   20.8670 C.ar    6  PHE6       -0.0003
     43  CE2       22.1530   48.6840   20.7130 C.ar    6  PHE6       -0.0003
     44  CZ        22.1160   47.5210   21.4770 C.ar    6  PHE6       -0.0000
     45  N         19.0710   44.5170   23.8470 N.3    32  GLU32      -0.1245
     46  CA        19.5800   44.0910   25.1330 C.3    32  GLU32       0.1567
     47  C         18.6290   43.0410   25.7450 C.2    32  GLU32       0.2260
     48  O         17.4000   43.1090   25.5710 O.2    32  GLU32      -0.2867
     49  CB        19.7650   45.2880   26.0720 C.3    32  GLU32       0.0388
     50  CG        20.8990   46.2250   25.5700 C.3    32  GLU32       0.1160
     51  CD        20.9780   47.5850   26.2800 C.2    32  GLU32       0.3649
     52  OE1       20.5250   47.7290   27.4560 O.co2  32  GLU32      -0.2457
     53  OE2       21.4980   48.5390   25.6350 O.co2  32  GLU32      -0.2457
     54  N         21.6500   42.4720   31.7650 N.3    37  PRO37      -0.2102
     55  CA        22.6730   43.4670   31.5190 C.3    37  PRO37       0.1504
     56  C         23.9230   42.8880   30.8730 C.2    37  PRO37       0.2576
     57  O         24.5020   41.9130   31.3570 O.2    37  PRO37      -0.2718
     58  CB        22.9250   44.0120   32.9380 C.3    37  PRO37       0.0282
     59  CG        21.4610   44.1320   33.4900 C.3    37  PRO37       0.0208
     60  CD        20.7040   42.9690   32.8090 C.3    37  PRO37       0.0893
     61  N         24.3070   43.4790   29.7590 N.am   38  GLY38      -0.1957
     62  CA        25.4930   43.0410   29.0510 C.3    38  GLY38       0.1869
     63  C         25.2150   42.0830   27.9180 C.2    38  GLY38       0.2309
     64  O         26.0370   41.9700   27.0010 O.2    38  GLY38      -0.2863
     65  N         22.6870   40.1470   24.9250 N.3    40  PHE40      -0.1241
     66  CA        21.7600   40.4880   23.7940 C.3    40  PHE40       0.1605
     67  C         20.7660   39.3790   23.5490 C.2    40  PHE40       0.2264
     68  O         21.0870   38.1790   23.8320 O.2    40  PHE40      -0.2867
     69  CB        22.5850   40.7410   22.4930 C.3    40  PHE40       0.0534
     70  CG        23.5840   41.8620   22.6520 C.ar   40  PHE40      -0.0203
     71  CD1       23.1910   43.1770   22.5200 C.ar   40  PHE40      -0.0042
     72  CD2       24.9370   41.5380   22.9930 C.ar   40  PHE40      -0.0042
     73  CE1       24.1270   44.2420   22.7010 C.ar   40  PHE40      -0.0003
     74  CE2       25.8800   42.5790   23.2010 C.ar   40  PHE40      -0.0003
     75  CZ        25.4770   43.9040   23.0570 C.ar   40  PHE40      -0.0000
     76  N         27.6640   33.5150   24.4960 N.3    57  ARG57      -0.1245
     77  CA        29.1390   33.8810   24.5110 C.3    57  ARG57       0.1563
     78  C         29.9410   32.7360   25.0640 C.2    57  ARG57       0.2260
     79  O         29.4600   31.9380   25.8490 O.2    57  ARG57      -0.2867
     80  CB        29.4180   35.0610   25.4440 C.3    57  ARG57       0.0307
     81  CG        28.5120   36.2640   25.2790 C.3    57  ARG57       0.0489
     82  CD        28.8380   36.9880   23.9930 C.3    57  ARG57       0.2205
     83  NE        30.1770   37.6040   23.9250 N.pl3  57  ARG57      -0.0865
     84  CZ        30.5370   38.7710   24.4390 C.cat  57  ARG57       0.5346
     85  NH1       29.6730   39.5020   25.1560 N.pl3  57  ARG57       0.1354
     86  NH2       31.7670   39.2340   24.2180 N.pl3  57  ARG57       0.1354
     87  N         30.8230   35.2640   19.9270 N.3    63  TYR63      -0.1241
     88  CA        29.3630   35.2380   19.8010 C.3    63  TYR63       0.1605
     89  C         28.8240   34.1050   18.9200 C.2    63  TYR63       0.2264
     90  O         29.4400   33.8050   17.8980 O.2    63  TYR63      -0.2867
     91  CB        28.9160   36.5770   19.1570 C.3    63  TYR63       0.0534
     92  CG        29.2360   37.8200   19.9500 C.ar   63  TYR63      -0.0201
     93  CD1       28.2920   38.3500   20.8670 C.ar   63  TYR63      -0.0009
     94  CD2       30.4960   38.4670   19.8420 C.ar   63  TYR63      -0.0009
     95  CE1       28.5950   39.4300   21.6300 C.ar   63  TYR63       0.0417
     96  CE2       30.7990   39.6030   20.5930 C.ar   63  TYR63       0.0417
     97  CZ        29.8060   40.0900   21.4730 C.ar   63  TYR63       0.1957
     98  OH        30.0540   41.1970   22.2070 O.3    63  TYR63      -0.2866
@<TRIPOS>BOND
     1     1     2    1
     2     2     3    1
     3     2     5    1
     4    26    28   ar
     5    26    25   ar
     6     3     4    2
     7    28    29   ar
     8    10    11    1
     9     5     6    1
    10    20    21    1
    11    25    24    1
    12    25    27   ar
    13    24    21    1
    14    11    12    1
    15    11    14    1
    16    12    13    2
    17    29    27   ar
    18    29    31   ar
    19    21    22    1
    20     7     6    1
    21     7     8    1
    22    27    30   ar
    23    31    33   ar
    24    14    15    1
    25    22    34   am
    26    22    23    2
    27     8     9    1
    28    30    32   ar
    29    15    16   ar
    30    15    17   ar
    31    16    18   ar
    32    33    32   ar
    33    34    35    1
    34    17    19   ar
    35    18    19   ar
    36    35    38    1
    37    35    36    1
    38    37    36    2
    39    38    39    1
    40    90    89    2
    41    39    41   ar
    42    39    40   ar
    43    89    88    1
    44    91    88    1
    45    91    92    1
    46    41    43   ar
    47    40    42   ar
    48    88    87    1
    49    94    92   ar
    50    94    96   ar
    51    92    93   ar
    52    96    97   ar
    53    43    44   ar
    54    93    95   ar
    55    42    44   ar
    56    97    95   ar
    57    97    98    1
    58    69    70    1
    59    69    66    1
    60    71    70   ar
    61    71    73   ar
    62    70    72   ar
    63    73    75   ar
    64    72    74   ar
    65    75    74   ar
    66    67    66    1
    67    67    68    2
    68    66    65    1
    69    45    46    1
    70    83    82    1
    71    83    84    2
    72    82    81    1
    73    86    84    1
    74    84    85    1
    75    76    77    1
    76    77    78    1
    77    77    80    1
    78    78    79    2
    79    46    47    1
    80    46    49    1
    81    81    80    1
    82    50    49    1
    83    50    51    1
    84    48    47    2
    85    53    51   ar
    86    51    52   ar
    87    64    63    2
    88    63    62    1
    89    62    61    1
    90    61    56   am
    91    56    57    2
    92    56    55    1
    93    55    54    1
    94    55    58    1
    95    54    60    1
    96    60    59    1
    97    58    59    1
