@<TRIPOS>MOLECULE
tmp/2aogB00.pdb
 100 95 0 0 0
SMALL
GASTEIGER

@<TRIPOS>ATOM
      1  N         12.3580   27.1270   24.8810 N.3    25  ASP25      -0.1239
      2  CA        12.4250   26.8120   23.4620 C.3    25  ASP25       0.1674
      3  C         11.0670   26.6000   22.8140 C.2    25  ASP25       0.2266
      4  O         10.4910   25.5000   22.8320 O.2    25  ASP25      -0.2867
      5  CB        13.2580   25.5180   23.3210 C.3    25  ASP25       0.1410
      6  CG        13.6260   25.2960   21.9170 C.2    25  ASP25       0.3668
      7  OD1       13.1460   26.0800   21.0150 O.co2  25  ASP25      -0.2456
      8  OD2       14.3950   24.3520   21.6210 O.co2  25  ASP25      -0.2456
      9  N         10.4570   26.3770   19.7820 N.3    27  GLY27      -0.1210
     10  CA        10.6460   25.4670   18.6680 C.3    27  GLY27       0.1956
     11  C         10.8030   24.0180   19.0770 C.2    27  GLY27       0.2612
     12  O         11.0970   23.1880   18.1990 O.2    27  GLY27      -0.2717
     13  N         10.6010   23.6680   20.3340 N.am   28  ALA28      -0.1965
     14  CA        10.6840   22.3140   20.8680 C.3    28  ALA28       0.1728
     15  C          9.2920   21.8790   21.2720 C.2    28  ALA28       0.2616
     16  O          8.6390   22.5070   22.0770 O.2    28  ALA28      -0.2715
     17  CB        11.6240   22.2360   22.0450 C.3    28  ALA28       0.0334
     18  N          8.8610   20.7210   20.7570 N.am   29  ASP29      -0.1957
     19  CA         7.6250   20.1160   21.2070 C.3    29  ASP29       0.1840
     20  C          7.6890   19.7010   22.6680 C.2    29  ASP29       0.2622
     21  O          6.7130   19.7950   23.4110 O.2    29  ASP29      -0.2715
     22  CB         7.2900   18.8770   20.3490 C.3    29  ASP29       0.1450
     23  CG         7.0580   19.0930   18.8800 C.2    29  ASP29       0.3671
     24  OD1        6.7900   20.2370   18.4360 O.co2  29  ASP29      -0.2456
     25  OD2        7.1160   18.0490   18.1640 O.co2  29  ASP29      -0.2456
     26  N          8.8410   19.1770   23.0510 N.am   30  ASP30      -0.1971
     27  CA         9.0560   18.4660   24.3050 C.3    30  ASP30       0.1709
     28  C         10.2170   19.1020   25.0710 C.2    30  ASP30       0.2293
     29  O         10.9780   19.9020   24.5640 O.2    30  ASP30      -0.2864
     30  CB         9.4150   17.0280   23.9840 C.3    30  ASP30       0.1436
     31  CG         8.4110   16.3560   23.0570 C.2    30  ASP30       0.3671
     32  OD1        7.2330   16.3120   23.4400 O.co2  30  ASP30      -0.2456
     33  OD2        8.7890   15.8920   21.9860 O.co2  30  ASP30      -0.2456
     34  N         13.7200   18.3660   26.9850 N.3    32  VAL32      -0.1245
     35  CA        14.8030   17.4140   26.8310 C.3    32  VAL32       0.1561
     36  C         15.9660   17.8830   27.6950 C.2    32  VAL32       0.2260
     37  O         16.4350   19.0210   27.5450 O.2    32  VAL32      -0.2867
     38  CB        15.2690   17.2620   25.3530 C.3    32  VAL32       0.0252
     39  CG1       16.1600   16.0360   25.2200 C.3    32  VAL32       0.0019
     40  CG2       14.0720   17.1970   24.4330 C.3    32  VAL32       0.0019
     41  N         11.6060    6.8600   23.2590 N.3    45  LYS45      -0.1231
     42  CA        11.1240    7.8570   22.3430 C.3    45  LYS45       0.1693
     43  C         12.2370    8.2430   21.4270 C.2    45  LYS45       0.2592
     44  O         13.3970    8.3250   21.8370 O.2    45  LYS45      -0.2718
     45  CB        10.6380    9.0830   23.1420 C.3    45  LYS45       0.0285
     46  CG         9.8350   10.1040   22.2520 C.3    45  LYS45       0.0035
     47  CD         9.2170   11.2190   22.9900 C.3    45  LYS45       0.0206
     48  CE         8.6480   12.1720   21.9750 C.3    45  LYS45       0.1093
     49  NZ         7.3610   11.8470   21.4550 N.3    45  LYS45      -0.1314
     50  N         11.8800    8.4890   20.1780 N.am   46  MET46      -0.1965
     51  CA        12.8100    9.0530   19.1980 C.3    46  MET46       0.1736
     52  C         12.4240   10.5060   18.9560 C.2    46  MET46       0.2616
     53  O         11.2350   10.7670   18.7760 O.2    46  MET46      -0.2715
     54  CB        12.8580    8.2660   17.8980 C.3    46  MET46       0.0427
     55  CG        13.9680    8.6690   16.9550 C.3    46  MET46       0.0599
     56  SD        15.5590    7.8800   17.2350 S.3    46  MET46      -0.1393
     57  CE        15.5020    6.5460   16.0320 C.3    46  MET46       0.0692
     58  N         13.4040   11.3910   18.9670 N.am   47  ILE47      -0.1963
     59  CA        13.1200   12.8050   18.6890 C.3    47  ILE47       0.1727
     60  C         14.0600   13.2690   17.6010 C.2    47  ILE47       0.2617
     61  O         15.1130   12.6860   17.3640 O.2    47  ILE47      -0.2715
     62  CB        13.2550   13.6650   19.9460 C.3    47  ILE47       0.0290
     63  CG1       14.6410   13.5690   20.5710 C.3    47  ILE47       0.0022
     64  CG2       12.1710   13.3170   20.9580 C.3    47  ILE47       0.0023
     65  CD1       14.9020   14.5680   21.7320 C.3    47  ILE47       0.0001
     66  N         13.6450   14.3570   16.9510 N.am   48  GLY48      -0.1940
     67  CA        14.3940   14.8950   15.8450 C.3    48  GLY48       0.2014
     68  C         14.7660   16.3520   16.0860 C.2    48  GLY48       0.2639
     69  O         14.0760   17.0810   16.7770 O.2    48  GLY48      -0.2714
     70  N         15.8690   16.7650   15.4590 N.am   49  GLY49      -0.1939
     71  CA        16.2950   18.1320   15.4740 C.3    49  GLY49       0.2014
     72  C         16.9380   18.4670   14.1440 C.2    49  GLY49       0.2638
     73  O         16.7650   17.7800   13.1320 O.2    49  GLY49      -0.2714
     74  N         17.7020   19.5460   14.1290 N.am   50  ILE50      -0.1977
     75  CA        18.3540   20.0860   12.9790 C.3    50  ILE50       0.1596
     76  C         19.1870   19.0140   12.2640 C.2    50  ILE50       0.2287
     77  O         19.3010   19.0150   11.0430 O.2    50  ILE50      -0.2864
     78  CB        19.1180   21.3480   13.4260 C.3    50  ILE50       0.0276
     79  CG1       19.5440   22.1970   12.2150 C.3    50  ILE50       0.0022
     80  CG2       20.3250   21.1180   14.2720 C.3    50  ILE50       0.0022
     81  CD1       18.3910   22.8180   11.5300 C.3    50  ILE50       0.0001
     82  N         18.0580   12.4430   14.1730 N.3    53  PHE53      -0.1241
     83  CA        17.2600   11.8430   15.2360 C.3    53  PHE53       0.1605
     84  C         18.1380   11.2820   16.3240 C.2    53  PHE53       0.2264
     85  O         19.1880   10.7160   16.0440 O.2    53  PHE53      -0.2867
     86  CB        16.4030   10.6640   14.6920 C.3    53  PHE53       0.0534
     87  CG        15.5550   11.2570   13.5910 C.ar   53  PHE53      -0.0203
     88  CD1       16.0380   11.2800   12.2950 C.ar   53  PHE53      -0.0042
     89  CD2       14.3430   11.7990   13.9620 C.ar   53  PHE53      -0.0042
     90  CE1       15.2800   11.8790   11.3030 C.ar   53  PHE53      -0.0003
     91  CE2       13.5730   12.3770   12.9840 C.ar   53  PHE53      -0.0003
     92  CZ        14.0810   12.4300   11.6990 C.ar   53  PHE53      -0.0000
     93  N         16.6130   21.8770   27.2030 N.3    84  ILE84      -0.1245
     94  CA        15.5760   22.7020   26.5780 C.3    84  ILE84       0.1561
     95  C         14.2520   22.4230   27.2480 C.2    84  ILE84       0.2260
     96  O         13.8510   21.2900   27.5270 O.2    84  ILE84      -0.2867
     97  CB        15.4850   22.5280   25.0520 C.3    84  ILE84       0.0252
     98  CG1       15.1050   21.1430   24.6490 C.3    84  ILE84       0.0019
     99  CG2       16.8060   22.9590   24.3990 C.3    84  ILE84       0.0019
    100  CD1       15.1320   20.9390   23.1530 C.3    84  ILE84       0.0001
@<TRIPOS>BOND
     1    77    76    2
     2    90    92   ar
     3    90    88   ar
     4    81    79    1
     5    92    91   ar
     6    79    78    1
     7    76    75    1
     8    88    87   ar
     9    75    78    1
    10    75    74    1
    11    91    89   ar
    12    73    72    2
    13    78    80    1
    14    87    89   ar
    15    87    86    1
    16    74    72   am
    17    72    71    1
    18    82    83    1
    19    86    83    1
    20    83    84    1
    21    70    71    1
    22    70    68   am
    23    67    68    1
    24    67    66    1
    25    57    56    1
    26    85    84    2
    27    68    69    2
    28    66    60   am
    29    55    56    1
    30    55    54    1
    31    61    60    2
    32    60    59    1
    33    54    51    1
    34    25    23   ar
    35    12    11    2
    36    24    23   ar
    37    10    11    1
    38    10     9    1
    39    59    58    1
    40    59    62    1
    41    53    52    2
    42    23    22    1
    43    52    58   am
    44    52    51    1
    45    11    13   am
    46    51    50    1
    47    62    63    1
    48    62    64    1
    49    50    43   am
    50    13    14    1
    51    22    19    1
    52    63    65    1
    53    18    19    1
    54    18    15   am
    55    14    15    1
    56    14    17    1
    57     7     6   ar
    58    19    20    1
    59    15    16    2
    60    43    44    2
    61    43    42    1
    62    49    48    1
    63     8     6   ar
    64     6     5    1
    65    48    47    1
    66    33    31   ar
    67    46    47    1
    68    46    45    1
    69    42    45    1
    70    42    41    1
    71    20    26   am
    72    20    21    2
    73     3     4    2
    74     3     2    1
    75    26    27    1
    76    31    32   ar
    77    31    30    1
    78   100    98    1
    79     5     2    1
    80     2     1    1
    81    30    27    1
    82    27    28    1
    83    99    97    1
    84    40    38    1
    85    29    28    2
    86    98    97    1
    87    97    94    1
    88    39    38    1
    89    38    35    1
    90    94    93    1
    91    94    95    1
    92    35    34    1
    93    35    36    1
    94    95    96    2
    95    37    36    2
