@<TRIPOS>MOLECULE
tmp/2aosA00.pdb
 109 110 0 0 0
SMALL
GASTEIGER

@<TRIPOS>ATOM
      1  N          8.8570   -7.4720   47.7400 N.3    77  GLY77      -0.1210
      2  CA         8.8930   -6.7310   46.5020 C.3    77  GLY77       0.1956
      3  C          7.8120   -7.2340   45.5490 C.2    77  GLY77       0.2611
      4  O          6.9360   -8.0180   45.9220 O.2    77  GLY77      -0.2717
      5  N          7.9130   -6.8120   44.2990 N.am   78  TRP78      -0.1976
      6  CA         6.9420   -7.1310   43.2830 C.3    78  TRP78       0.1640
      7  C          6.8920   -8.5510   42.6980 C.2    78  TRP78       0.2290
      8  O          5.7940   -9.0740   42.4480 O.2    78  TRP78      -0.2864
      9  CB         7.0930   -6.0830   42.2020 C.3    78  TRP78       0.0576
     10  CG         6.4750   -4.7920   42.6440 C.ar   78  TRP78       0.0006
     11  CD1        5.1600   -4.5980   42.8900 C.ar   78  TRP78       0.0946
     12  CD2        7.1240   -3.5310   42.9180 C.ar   78  TRP78       0.0152
     13  NE1        4.9220   -3.3080   43.2970 N.ar   78  TRP78      -0.2442
     14  CE2        6.1110   -2.6240   43.3240 C.ar   78  TRP78       0.0810
     15  CE3        8.4450   -3.0800   42.8690 C.ar   78  TRP78       0.0012
     16  CZ2        6.3760   -1.2860   43.6670 C.ar   78  TRP78       0.0191
     17  CZ3        8.7140   -1.7560   43.2160 C.ar   78  TRP78       0.0001
     18  CH2        7.6790   -0.8700   43.6080 C.ar   78  TRP78       0.0015
     19  N          7.3830  -11.2270   44.1390 N.3    80  PHE80      -0.1227
     20  CA         7.3490  -12.0730   45.3130 C.3    80  PHE80       0.1736
     21  C          5.8790  -12.1950   45.6660 C.2    80  PHE80       0.2596
     22  O          5.3140  -11.3410   46.3500 O.2    80  PHE80      -0.2718
     23  CB         8.1270  -11.4080   46.4530 C.3    80  PHE80       0.0547
     24  CG         8.2880  -12.2870   47.6670 C.ar   80  PHE80      -0.0202
     25  CD1        7.2730  -12.4070   48.5950 C.ar   80  PHE80      -0.0042
     26  CD2        9.4420  -13.0220   47.8610 C.ar   80  PHE80      -0.0042
     27  CE1        7.4000  -13.2600   49.6730 C.ar   80  PHE80      -0.0003
     28  CE2        9.5760  -13.8590   48.9420 C.ar   80  PHE80      -0.0003
     29  CZ         8.5460  -13.9830   49.8480 C.ar   80  PHE80      -0.0000
     30  N          5.2400  -13.2460   45.1780 N.am   81  GLY81      -0.1943
     31  CA         3.8210  -13.4290   45.4430 C.3    81  GLY81       0.1998
     32  C          3.4650  -13.1440   46.8930 C.2    81  GLY81       0.2480
     33  O          4.0730  -13.7380   47.7890 O.2    81  GLY81      -0.2729
     34  N          2.4820  -12.2680   47.1590 N.am   82  PRO82      -0.2726
     35  CA         2.1350  -11.9990   48.5510 C.3    82  PRO82       0.1402
     36  C          1.5740  -13.2660   49.2380 C.2    82  PRO82       0.2269
     37  O          1.6200  -13.3890   50.4680 O.2    82  PRO82      -0.2865
     38  CB         1.1000  -10.8880   48.4270 C.3    82  PRO82       0.0296
     39  CG         0.4320  -11.2120   47.1590 C.3    82  PRO82       0.0237
     40  CD         1.5790  -11.5390   46.2540 C.3    82  PRO82       0.0939
     41  N          3.9880   -6.9570   49.2740 N.3   119  LEU119     -0.1231
     42  CA         3.1750   -6.1560   48.3910 C.3   119  LEU119      0.1693
     43  C          1.7250   -6.5280   48.3960 C.2   119  LEU119      0.2592
     44  O          1.2390   -7.3590   47.6370 O.2   119  LEU119     -0.2718
     45  CB         3.7830   -6.0150   47.0100 C.3   119  LEU119      0.0284
     46  CG         4.9100   -4.9950   47.3130 C.3   119  LEU119      0.0019
     47  CD1        5.6790   -4.6430   46.0780 C.3   119  LEU119      0.0001
     48  CD2        4.3220   -3.7510   47.9370 C.3   119  LEU119      0.0001
     49  N          1.1060   -5.8840   49.3890 N.am  120  TYR120     -0.1976
     50  CA        -0.2900   -5.8880   49.7300 C.3   120  TYR120      0.1639
     51  C         -0.8440   -7.0860   50.4260 C.2   120  TYR120      0.2290
     52  O         -1.0520   -8.1270   49.8350 O.2   120  TYR120     -0.2864
     53  CB        -1.0760   -5.4900   48.5180 C.3   120  TYR120      0.0560
     54  CG        -0.4290   -4.2780   47.8780 C.ar  120  TYR120     -0.0198
     55  CD1        0.2900   -3.3710   48.6510 C.ar  120  TYR120     -0.0009
     56  CD2       -0.4980   -4.0660   46.4940 C.ar  120  TYR120     -0.0009
     57  CE1        0.9400   -2.2920   48.0610 C.ar  120  TYR120      0.0417
     58  CE2        0.1350   -3.0050   45.9000 C.ar  120  TYR120      0.0417
     59  CZ         0.8490   -2.1240   46.6730 C.ar  120  TYR120      0.1957
     60  OH         1.4660   -1.0940   46.0180 O.3   120  TYR120     -0.2866
     61  N         -8.2330   -2.5400   54.0410 N.3   166  ARG166     -0.1245
     62  CA        -8.2760   -3.9820   53.8710 C.3   166  ARG166      0.1563
     63  C         -7.2580   -4.7490   54.6760 C.2   166  ARG166      0.2260
     64  O         -7.6190   -5.5790   55.4990 O.2   166  ARG166     -0.2867
     65  CB        -8.1020   -4.3440   52.3980 C.3   166  ARG166      0.0307
     66  CG        -8.4190   -5.7890   52.1090 C.3   166  ARG166      0.0489
     67  CD        -7.8070   -6.2180   50.7960 C.3   166  ARG166      0.2205
     68  NE        -8.2290   -5.3620   49.6820 N.pl3 166  ARG166     -0.0865
     69  CZ        -7.3980   -4.8540   48.7790 C.cat 166  ARG166      0.5346
     70  NH1       -6.0890   -5.0960   48.8650 N.pl3 166  ARG166      0.1354
     71  NH2       -7.8620   -4.1170   47.7810 N.pl3 166  ARG166      0.1354
     72  N          1.1640    4.9080   42.9490 N.3   186  ASP186     -0.1239
     73  CA         0.4440    3.8300   42.2770 C.3   186  ASP186      0.1674
     74  C         -1.0020    4.2630   42.0720 C.2   186  ASP186      0.2266
     75  O         -1.9060    3.4510   42.0400 O.2   186  ASP186     -0.2867
     76  CB         0.4530    2.5670   43.1420 C.3   186  ASP186      0.1410
     77  CG         0.7090    1.3050   42.3350 C.2   186  ASP186      0.3668
     78  OD1        0.1350    0.2420   42.6810 O.co2 186  ASP186     -0.2456
     79  OD2        1.5010    1.3590   41.3600 O.co2 186  ASP186     -0.2456
     80  N         -3.1800   -0.0620   37.4820 N.3   190  ALA190     -0.1231
     81  CA        -2.8630   -0.8740   36.3280 C.3   190  ALA190      0.1694
     82  C         -4.1680   -1.0660   35.5550 C.2   190  ALA190      0.2592
     83  O         -4.1910   -1.0730   34.3180 O.2   190  ALA190     -0.2718
     84  CB        -2.3150   -2.2400   36.7880 C.3   190  ALA190      0.0304
     85  N         -5.2550   -1.1760   36.3130 N.am  191  TRP191     -0.1962
     86  CA        -6.5710   -1.4180   35.7430 C.3   191  TRP191      0.1771
     87  C         -7.0210   -0.6370   34.4980 C.2   191  TRP191      0.2619
     88  O         -6.6750   -1.0120   33.3730 O.2   191  TRP191     -0.2715
     89  CB        -7.6660   -1.3650   36.8330 C.3   191  TRP191      0.0590
     90  CG        -7.9150   -0.1040   37.6270 C.ar  191  TRP191      0.0006
     91  CD1       -7.1190    0.4300   38.5970 C.ar  191  TRP191      0.0946
     92  CD2       -9.1180    0.6860   37.6190 C.ar  191  TRP191      0.0152
     93  NE1       -7.7490    1.5020   39.1890 N.ar  191  TRP191     -0.2442
     94  CE2       -8.9760    1.6840   38.6070 C.ar  191  TRP191      0.0810
     95  CE3      -10.3010    0.6510   36.8670 C.ar  191  TRP191      0.0012
     96  CZ2       -9.9690    2.6460   38.8650 C.ar  191  TRP191      0.0191
     97  CZ3      -11.2980    1.6110   37.1260 C.ar  191  TRP191      0.0001
     98  CH2      -11.1200    2.5910   38.1170 C.ar  191  TRP191      0.0015
     99  N         -7.7800    0.4390   34.6940 N.am  192  ARG192     -0.1977
    100  CA        -8.3470    1.1750   33.5710 C.3   192  ARG192      0.1597
    101  C         -7.5280    1.5340   32.3370 C.2   192  ARG192      0.2287
    102  O         -6.3010    1.4280   32.3010 O.2   192  ARG192     -0.2864
    103  CB        -9.0710    2.4250   34.0570 C.3   192  ARG192      0.0334
    104  CG       -10.5980    2.2820   33.9510 C.3   192  ARG192      0.0492
    105  CD       -11.0590    1.5660   32.6560 C.3   192  ARG192      0.2205
    106  NE       -10.6840    0.1440   32.6100 N.pl3 192  ARG192     -0.0865
    107  CZ       -11.1080   -0.7290   31.6850 C.cat 192  ARG192      0.5346
    108  NH1      -11.9320   -0.3270   30.7210 N.pl3 192  ARG192      0.1354
    109  NH2      -10.7080   -2.0000   31.7220 N.pl3 192  ARG192      0.1354
@<TRIPOS>BOND
     1   108   107    1
     2   107   109    1
     3   107   106    2
     4   102   101    2
     5   101   100    1
     6   106   105    1
     7   105   104    1
     8    88    87    2
     9   100   103    1
    10   100    99    1
    11   104   103    1
    12    83    82    2
    13    87    99   am
    14    87    86    1
    15    82    85   am
    16    82    81    1
    17    86    85    1
    18    86    89    1
    19    81    84    1
    20    81    80    1
    21    89    90    1
    22    95    97   ar
    23    95    92   ar
    24    97    98   ar
    25    92    90   ar
    26    92    94   ar
    27    90    91   ar
    28    98    96   ar
    29    91    93   ar
    30    94    96   ar
    31    94    93   ar
    32    79    77   ar
    33    75    74    2
    34    74    73    1
    35     9    10    1
    36     9     6    1
    37    73    72    1
    38    73    76    1
    39    77    78   ar
    40    77    76    1
    41     8     7    2
    42    10    11   ar
    43    10    12   ar
    44     7     6    1
    45    15    12   ar
    46    15    17   ar
    47    11    13   ar
    48    12    14   ar
    49    17    18   ar
    50     6     5    1
    51    13    14   ar
    52    14    16   ar
    53    18    16   ar
    54    19    20    1
    55     5     3   am
    56    30    31    1
    57    30    21   am
    58    20    21    1
    59    20    23    1
    60    31    32    1
    61     3     4    2
    62     3     2    1
    63    21    22    2
    64    58    56   ar
    65    58    59   ar
    66    60    59    1
    67    47    46    1
    68    40    34    1
    69    40    39    1
    70    23    24    1
    71    56    54   ar
    72     2     1    1
    73    59    57   ar
    74    32    34   am
    75    32    33    2
    76    45    46    1
    77    45    42    1
    78    34    35    1
    79    39    38    1
    80    46    48    1
    81    44    43    2
    82    24    26   ar
    83    24    25   ar
    84    71    69    1
    85    26    28   ar
    86    54    53    1
    87    54    55   ar
    88    57    55   ar
    89    42    43    1
    90    42    41    1
    91    43    49   am
    92    38    35    1
    93    53    50    1
    94    35    36    1
    95    25    27   ar
    96    69    70    1
    97    69    68    2
    98    28    29   ar
    99    36    37    2
   100    49    50    1
   101    27    29   ar
   102    68    67    1
   103    50    51    1
   104    52    51    2
   105    67    66    1
   106    66    65    1
   107    65    62    1
   108    62    61    1
   109    62    63    1
   110    63    64    2
