@<TRIPOS>MOLECULE
tmp/2aotA00.pdb
 185 183 0 0 0
SMALL
GASTEIGER

@<TRIPOS>ATOM
      1  N         57.3140  -16.8400   38.0500 N.3     4  LEU4       -0.1231
      2  CA        57.7270  -15.4740   38.3270 C.3     4  LEU4        0.1693
      3  C         56.6530  -14.6830   39.0730 C.2     4  LEU4        0.2592
      4  O         56.9560  -13.6870   39.7310 O.2     4  LEU4       -0.2718
      5  CB        58.0830  -14.7630   37.0190 C.3     4  LEU4        0.0284
      6  CG        58.6950  -13.3640   37.1270 C.3     4  LEU4        0.0019
      7  CD1       59.9490  -13.4090   37.9870 C.3     4  LEU4        0.0001
      8  CD2       59.0200  -12.8460   35.7360 C.3     4  LEU4        0.0001
      9  N         55.4030  -15.1350   38.9800 N.am    5  PHE5       -0.1976
     10  CA        54.2940  -14.4570   39.6450 C.3     5  PHE5        0.1639
     11  C         54.3220  -14.5920   41.1660 C.2     5  PHE5        0.2290
     12  O         53.7880  -13.7390   41.8730 O.2     5  PHE5       -0.2864
     13  CB        52.9450  -14.9710   39.1220 C.3     5  PHE5        0.0560
     14  CG        52.6820  -14.6400   37.6790 C.ar    5  PHE5       -0.0200
     15  CD1       53.0200  -15.5370   36.6710 C.ar    5  PHE5       -0.0042
     16  CD2       52.1170  -13.4190   37.3260 C.ar    5  PHE5       -0.0042
     17  CE1       52.8010  -15.2210   35.3320 C.ar    5  PHE5       -0.0003
     18  CE2       51.8940  -13.0940   35.9880 C.ar    5  PHE5       -0.0003
     19  CZ        52.2380  -13.9970   34.9900 C.ar    5  PHE5       -0.0000
     20  N         59.0720  -10.3530   39.6650 N.3    11  TYR11      -0.1241
     21  CA        58.1890  -10.0090   38.5570 C.3    11  TYR11       0.1605
     22  C         58.3890   -8.5560   38.1420 C.2    11  TYR11       0.2264
     23  O         58.5490   -8.2550   36.9580 O.2    11  TYR11      -0.2867
     24  CB        56.7360  -10.2440   38.9590 C.3    11  TYR11       0.0534
     25  CG        55.7320   -9.9630   37.8740 C.ar   11  TYR11      -0.0201
     26  CD1       55.7250  -10.6810   36.7020 C.ar   11  TYR11      -0.0009
     27  CD2       54.8070   -8.9790   38.0070 C.ar   11  TYR11      -0.0009
     28  CE1       54.8170  -10.4370   35.6820 C.ar   11  TYR11       0.0417
     29  CE2       53.8940   -8.7090   36.9860 C.ar   11  TYR11       0.0417
     30  CZ        53.8760   -9.4610   35.8740 C.ar   11  TYR11       0.1957
     31  OH        52.9530   -9.1620   34.8720 O.3    11  TYR11      -0.2866
     32  N         59.6530   -7.4850   34.6250 N.3    15  PHE15      -0.1241
     33  CA        58.7740   -6.6880   33.7800 C.3    15  PHE15       0.1605
     34  C         59.4420   -5.3840   33.3690 C.2    15  PHE15       0.2264
     35  O         59.4770   -5.0390   32.1840 O.2    15  PHE15      -0.2867
     36  CB        57.4720   -6.3720   34.5130 C.3    15  PHE15       0.0534
     37  CG        56.2960   -6.2110   33.6010 C.ar   15  PHE15      -0.0203
     38  CD1       55.4380   -7.2790   33.3630 C.ar   15  PHE15      -0.0042
     39  CD2       56.0570   -5.0030   32.9590 C.ar   15  PHE15      -0.0042
     40  CE1       54.3570   -7.1470   32.4970 C.ar   15  PHE15      -0.0003
     41  CE2       54.9780   -4.8590   32.0890 C.ar   15  PHE15      -0.0003
     42  CZ        54.1260   -5.9330   31.8580 C.ar   15  PHE15      -0.0000
     43  N         61.5030   -5.7640   30.6200 N.3    18  PHE18      -0.1241
     44  CA        60.7130   -5.9300   29.4090 C.3    18  PHE18       0.1605
     45  C         60.3850   -4.5980   28.7470 C.2    18  PHE18       0.2264
     46  O         60.8160   -4.3400   27.6270 O.2    18  PHE18      -0.2867
     47  CB        59.4130   -6.6790   29.7180 C.3    18  PHE18       0.0534
     48  CG        58.4910   -6.8000   28.5380 C.ar   18  PHE18      -0.0203
     49  CD1       58.8990   -7.4640   27.3850 C.ar   18  PHE18      -0.0042
     50  CD2       57.2270   -6.2230   28.5660 C.ar   18  PHE18      -0.0042
     51  CE1       58.0620   -7.5500   26.2750 C.ar   18  PHE18      -0.0003
     52  CE2       56.3820   -6.3030   27.4610 C.ar   18  PHE18      -0.0003
     53  CZ        56.8030   -6.9670   26.3140 C.ar   18  PHE18      -0.0000
     54  N         56.9290   -2.4390   23.2750 N.3    24  GLU24      -0.1245
     55  CA        55.5810   -2.5900   23.8080 C.3    24  GLU24       0.1567
     56  C         54.8620   -1.2390   23.8610 C.2    24  GLU24       0.2260
     57  O         53.9350   -0.9940   23.0880 O.2    24  GLU24      -0.2867
     58  CB        55.6420   -3.2300   25.2050 C.3    24  GLU24       0.0388
     59  CG        54.3050   -3.3810   25.9420 C.3    24  GLU24       0.1160
     60  CD        53.5840   -4.7100   25.6900 C.2    24  GLU24       0.3649
     61  OE1       54.1520   -5.6130   25.0400 O.co2  24  GLU24      -0.2457
     62  OE2       52.4360   -4.8500   26.1670 O.co2  24  GLU24      -0.2457
     63  N         46.2270   -5.5280   27.8730 N.3   139  GLN139     -0.1245
     64  CA        47.1740   -6.5290   28.3670 C.3   139  GLN139      0.1566
     65  C         46.8410   -7.0560   29.7550 C.2   139  GLN139      0.2260
     66  O         47.7340   -7.1760   30.5980 O.2   139  GLN139     -0.2867
     67  CB        48.5960   -5.9520   28.3800 C.3   139  GLN139      0.0367
     68  CG        49.1710   -5.6820   26.9950 C.3   139  GLN139      0.0905
     69  CD        49.5830   -6.9460   26.2660 C.2   139  GLN139      0.2608
     70  OE1       48.8190   -7.9110   26.1910 O.2   139  GLN139     -0.2717
     71  NE2       50.7950   -6.9420   25.7050 N.am  139  GLN139     -0.0878
     72  N         44.6860  -11.9210   30.4990 N.3   142  TYR142     -0.1227
     73  CA        45.4240  -13.1210   30.9110 C.3   142  TYR142      0.1736
     74  C         45.0720  -13.4530   32.3540 C.2   142  TYR142      0.2595
     75  O         45.1090  -14.6200   32.7700 O.2   142  TYR142     -0.2718
     76  CB        46.9300  -12.8660   30.8740 C.3   142  TYR142      0.0548
     77  CG        47.4190  -12.2270   29.6050 C.ar  142  TYR142     -0.0200
     78  CD1       47.8080  -10.8870   29.5840 C.ar  142  TYR142     -0.0009
     79  CD2       47.4650  -12.9470   28.4150 C.ar  142  TYR142     -0.0009
     80  CE1       48.2260  -10.2790   28.4040 C.ar  142  TYR142      0.0417
     81  CE2       47.8800  -12.3470   27.2320 C.ar  142  TYR142      0.0417
     82  CZ        48.2540  -11.0150   27.2340 C.ar  142  TYR142      0.1957
     83  OH        48.6320  -10.4070   26.0590 O.3   142  TYR142     -0.2866
     84  N         44.7520  -12.4060   33.1120 N.am  143  TYR143     -0.1976
     85  CA        44.4480  -12.5240   34.5670 C.3   143  TYR143      0.1639
     86  C         42.9860  -12.6380   34.8870 C.2   143  TYR143      0.2290
     87  O         42.5950  -12.5330   36.0580 O.2   143  TYR143     -0.2864
     88  CB        45.0790  -11.3270   35.3210 C.3   143  TYR143      0.0560
     89  CG        46.4470  -11.0760   34.7810 C.ar  143  TYR143     -0.0198
     90  CD1       46.7810   -9.8970   34.1180 C.ar  143  TYR143     -0.0009
     91  CD2       47.4240  -12.0630   34.9100 C.ar  143  TYR143     -0.0009
     92  CE1       48.0410   -9.7150   33.5870 C.ar  143  TYR143      0.0417
     93  CE2       48.6900  -11.8890   34.3890 C.ar  143  TYR143      0.0417
     94  CZ        48.9920  -10.7190   33.7250 C.ar  143  TYR143      0.1957
     95  OH        50.2370  -10.5320   33.1770 O.3   143  TYR143     -0.2866
     96  N         48.4610  -10.2550   23.1270 N.3   169  VAL169     -0.1245
     97  CA        49.4400  -10.6100   22.1090 C.3   169  VAL169      0.1561
     98  C         48.7070  -11.2940   20.9550 C.2   169  VAL169      0.2260
     99  O         47.6600  -11.9090   21.1540 O.2   169  VAL169     -0.2867
    100  CB        50.5400  -11.5320   22.6720 C.3   169  VAL169      0.0252
    101  CG1       51.2940  -10.7870   23.7820 C.3   169  VAL169      0.0019
    102  CG2       49.9430  -12.8300   23.2040 C.3   169  VAL169      0.0019
    103  N         55.1280  -15.2320   21.2900 N.3   175  TRP175     -0.1241
    104  CA        54.5320  -15.7360   22.5200 C.3   175  TRP175      0.1605
    105  C         53.6150  -16.9110   22.2160 C.2   175  TRP175      0.2264
    106  O         53.5810  -17.8950   22.9530 O.2   175  TRP175     -0.2867
    107  CB        53.7170  -14.6370   23.2100 C.3   175  TRP175      0.0550
    108  CG        54.5390  -13.5050   23.6860 C.ar  175  TRP175      0.0003
    109  CD1       54.6540  -12.2710   23.1140 C.ar  175  TRP175      0.0946
    110  CD2       55.4240  -13.5160   24.8100 C.ar  175  TRP175      0.0152
    111  NE1       55.5660  -11.5140   23.8140 N.ar  175  TRP175     -0.2442
    112  CE2       56.0510  -12.2560   24.8590 C.ar  175  TRP175      0.0810
    113  CE3       55.7480  -14.4750   25.7780 C.ar  175  TRP175      0.0012
    114  CZ2       56.9900  -11.9250   25.8440 C.ar  175  TRP175      0.0191
    115  CZ3       56.6840  -14.1440   26.7590 C.ar  175  TRP175      0.0001
    116  CH2       57.2910  -12.8790   26.7800 C.ar  175  TRP175      0.0015
    117  N         54.2030  -20.4230   23.9420 N.3   179  TRP179     -0.1241
    118  CA        53.2610  -21.0850   24.8250 C.3   179  TRP179      0.1605
    119  C         52.7880  -22.4190   24.2740 C.2   179  TRP179      0.2264
    120  O         52.5800  -23.3630   25.0340 O.2   179  TRP179     -0.2867
    121  CB        52.0630  -20.1730   25.1280 C.3   179  TRP179      0.0550
    122  CG        52.4500  -18.8730   25.7930 C.ar  179  TRP179      0.0003
    123  CD1       53.5180  -18.6590   26.6260 C.ar  179  TRP179      0.0946
    124  CD2       51.7560  -17.6210   25.7040 C.ar  179  TRP179      0.0152
    125  NE1       53.5300  -17.3520   27.0610 N.ar  179  TRP179     -0.2442
    126  CE2       52.4590  -16.6920   26.5110 C.ar  179  TRP179      0.0810
    127  CE3       50.6070  -17.1930   25.0270 C.ar  179  TRP179      0.0012
    128  CZ2       52.0480  -15.3600   26.6550 C.ar  179  TRP179      0.0191
    129  CZ3       50.1940  -15.8620   25.1740 C.ar  179  TRP179      0.0001
    130  CH2       50.9140  -14.9650   25.9820 C.ar  179  TRP179      0.0015
    131  N         46.7260  -16.9110   36.1490 N.3   192  CYS192     -0.1221
    132  CA        46.8000  -16.4760   34.7640 C.3   192  CYS192      0.1808
    133  C         46.6490  -17.6170   33.7710 C.2   192  CYS192      0.2601
    134  O         46.9310  -18.7770   34.0810 O.2   192  CYS192     -0.2717
    135  CB        48.1380  -15.7910   34.5150 C.3   192  CYS192      0.0970
    136  SG        49.5360  -16.8850   34.7950 S.3   192  CYS192     -0.0800
    137  N         46.2190  -17.2640   32.5660 N.am  193  GLN193     -0.1965
    138  CA        46.0400  -18.2260   31.4890 C.3   193  GLN193      0.1733
    139  C         46.5580  -17.5920   30.2040 C.2   193  GLN193      0.2616
    140  O         46.4650  -16.3690   30.0180 O.2   193  GLN193     -0.2715
    141  CB        44.5650  -18.5990   31.3270 C.3   193  GLN193      0.0408
    142  CG        43.6590  -17.4530   30.8850 C.3   193  GLN193      0.0908
    143  CD        42.2130  -17.8880   30.7180 C.2   193  GLN193      0.2608
    144  OE1       41.9210  -18.8230   29.9720 O.2   193  GLN193     -0.2717
    145  NE2       41.3010  -17.2100   31.4070 N.am  193  GLN193     -0.0878
    146  N         47.1330  -18.4190   29.3360 N.am  194  TYR194     -0.1974
    147  CA        47.6590  -17.9360   28.0690 C.3   194  TYR194      0.1639
    148  C         46.4750  -17.5550   27.1830 C.2   194  TYR194      0.2290
    149  O         45.5120  -18.3090   27.0680 O.2   194  TYR194     -0.2864
    150  CB        48.4750  -19.0330   27.3790 C.3   194  TYR194      0.0560
    151  CG        49.6830  -19.5250   28.1560 C.ar  194  TYR194     -0.0198
    152  CD1       49.9440  -20.8890   28.2760 C.ar  194  TYR194     -0.0009
    153  CD2       50.5930  -18.6300   28.7190 C.ar  194  TYR194     -0.0009
    154  CE1       51.0880  -21.3550   28.9350 C.ar  194  TYR194      0.0417
    155  CE2       51.7420  -19.0850   29.3810 C.ar  194  TYR194      0.0417
    156  CZ        51.9800  -20.4470   29.4800 C.ar  194  TYR194      0.1957
    157  OH        53.1220  -20.9060   30.1040 O.3   194  TYR194     -0.2866
    158  N         61.4420  -13.4360   32.5990 N.3   238  PHE238     -0.1241
    159  CA        60.2060  -12.8870   32.0600 C.3   238  PHE238      0.1605
    160  C         59.6290  -13.8480   31.0240 C.2   238  PHE238      0.2264
    161  O         58.5810  -14.4590   31.2310 O.2   238  PHE238     -0.2867
    162  CB        60.4900  -11.5390   31.4020 C.3   238  PHE238      0.0534
    163  CG        59.2600  -10.8120   30.9600 C.ar  238  PHE238     -0.0203
    164  CD1       58.4450  -10.1730   31.8860 C.ar  238  PHE238     -0.0042
    165  CD2       58.9080  -10.7700   29.6150 C.ar  238  PHE238     -0.0042
    166  CE1       57.2930   -9.4980   31.4790 C.ar  238  PHE238     -0.0003
    167  CE2       57.7570  -10.0990   29.1980 C.ar  238  PHE238     -0.0003
    168  CZ        56.9490   -9.4630   30.1330 C.ar  238  PHE238     -0.0000
    169  N         58.4750  -16.8760   32.4550 N.3   241  GLU241     -0.1245
    170  CA        57.5850  -16.7130   33.6010 C.3   241  GLU241      0.1567
    171  C         58.0610  -17.5910   34.7530 C.2   241  GLU241      0.2260
    172  O         57.2580  -18.2000   35.4640 O.2   241  GLU241     -0.2867
    173  CB        56.1530  -17.0810   33.2160 C.3   241  GLU241      0.0388
    174  CG        55.5970  -16.2740   32.0140 C.3   241  GLU241      0.1160
    175  CD        54.2230  -16.6190   31.5250 C.2   241  GLU241      0.3649
    176  OE1       53.5790  -17.5680   31.8790 O.co2 241  GLU241     -0.2457
    177  OE2       53.7590  -15.8280   30.6840 O.co2 241  GLU241     -0.2457
    178  N         56.9130   -9.7730   19.2730 N.3   277  ASN277     -0.1240
    179  CA        55.9720   -9.3800   20.3170 C.3   277  ASN277      0.1653
    180  C         54.7450   -8.7120   19.7030 C.2   277  ASN277      0.2266
    181  O         54.1270   -7.8470   20.3250 O.2   277  ASN277     -0.2867
    182  CB        56.6780   -8.4210   21.2890 C.3   277  ASN277      0.1155
    183  CG        55.8270   -8.0590   22.4960 C.2   277  ASN277      0.2627
    184  OD1       55.3970   -8.9260   23.2540 O.2   277  ASN277     -0.2716
    185  ND2       55.5990   -6.7660   22.6880 N.am  277  ASN277     -0.0877
@<TRIPOS>BOND
     1   178   179    1
     2   180   179    1
     3   180   181    2
     4   179   182    1
     5    98    99    2
     6    98    97    1
     7   182   183    1
     8   103   104    1
     9    97   100    1
    10    97    96    1
    11   105   104    1
    12   105   106    2
    13   183   185   am
    14   183   184    2
    15   104   107    1
    16   100   102    1
    17   100   101    1
    18    57    56    2
    19   109   108   ar
    20   109   111   ar
    21   107   108    1
    22    54    55    1
    23   108   110   ar
    24    55    56    1
    25    55    58    1
    26   111   112   ar
    27   117   118    1
    28   119   118    1
    29   119   120    2
    30   110   112   ar
    31   110   113   ar
    32   118   121    1
    33   112   114   ar
    34   127   129   ar
    35   127   124   ar
    36    61    60   ar
    37   121   122    1
    38   129   130   ar
    39    58    59    1
    40    60    59    1
    41    60    62   ar
    42   124   122   ar
    43   124   126   ar
    44    71    69   am
    45   113   115   ar
    46   122   123   ar
    47   114   116   ar
    48   130   128   ar
    49    83    82    1
    50    70    69    2
    51    69    68    1
    52    51    53   ar
    53    51    49   ar
    54    53    52   ar
    55   126   128   ar
    56   126   125   ar
    57   123   125   ar
    58   115   116   ar
    59    68    67    1
    60   149   148    2
    61   148   147    1
    62    81    82   ar
    63    81    79   ar
    64    82    80   ar
    65   150   147    1
    66   150   151    1
    67    49    48   ar
    68    52    50   ar
    69    46    45    2
    70    63    64    1
    71   147   146    1
    72   151   152   ar
    73   151   153   ar
    74   152   154   ar
    75    64    67    1
    76    64    65    1
    77    80    78   ar
    78    79    77   ar
    79    48    50   ar
    80    48    47    1
    81   153   155   ar
    82    45    44    1
    83   154   156   ar
    84   167   165   ar
    85   167   168   ar
    86   146   139   am
    87   155   156   ar
    88    44    47    1
    89    44    43    1
    90   156   157    1
    91    78    77   ar
    92    77    76    1
    93   165   163   ar
    94    65    66    2
    95   144   143    2
    96   140   139    2
    97   168   166   ar
    98   139   138    1
    99    72    73    1
   100   177   175   ar
   101   143   142    1
   102   143   145   am
   103    76    73    1
   104   142   141    1
   105    73    74    1
   106   163   162    1
   107   163   164   ar
   108   160   161    2
   109   160   159    1
   110   141   138    1
   111   162   159    1
   112   166   164   ar
   113   138   137    1
   114   175   176   ar
   115   175   174    1
   116    42    41   ar
   117    42    40   ar
   118   174   173    1
   119   159   158    1
   120    41    39   ar
   121    35    34    2
   122    74    75    2
   123    74    84   am
   124   169   170    1
   125    40    38   ar
   126   137   133   am
   127    39    37   ar
   128    84    85    1
   129    95    94    1
   130   173   170    1
   131    38    37   ar
   132    34    33    1
   133    92    94   ar
   134    92    90   ar
   135    37    36    1
   136   170   171    1
   137    94    93   ar
   138   133   134    2
   139   133   132    1
   140    33    36    1
   141    33    32    1
   142    90    89   ar
   143    93    91   ar
   144   135   132    1
   145   135   136    1
   146    85    86    1
   147    85    88    1
   148   171   172    2
   149   132   131    1
   150    89    91   ar
   151    89    88    1
   152    31    30    1
   153    86    87    2
   154    19    17   ar
   155    19    18   ar
   156    17    15   ar
   157    28    30   ar
   158    28    26   ar
   159     8     6    1
   160    30    29   ar
   161    18    16   ar
   162    15    14   ar
   163    26    25   ar
   164    23    22    2
   165    29    27   ar
   166     5     6    1
   167     5     2    1
   168     6     7    1
   169    16    14   ar
   170    14    13    1
   171    25    27   ar
   172    25    24    1
   173     1     2    1
   174    22    21    1
   175     2     3    1
   176    21    24    1
   177    21    20    1
   178     9     3   am
   179     9    10    1
   180     3     4    2
   181    13    10    1
   182    10    11    1
   183    11    12    2
