@<TRIPOS>MOLECULE
tmp/2aouA00.pdb
 212 206 0 0 0
SMALL
GASTEIGER

@<TRIPOS>ATOM
      1  N         55.0030  -16.9310   37.4640 N.3     4  LEU4       -0.1245
      2  CA        55.6070  -15.6310   37.7710 C.3     4  LEU4        0.1561
      3  C         54.6700  -14.8050   38.6550 C.2     4  LEU4        0.2260
      4  O         55.1150  -14.1520   39.5980 O.2     4  LEU4       -0.2867
      5  CB        55.8910  -14.8720   36.4710 C.3     4  LEU4        0.0270
      6  CG        56.6820  -13.5660   36.5900 C.3     4  LEU4        0.0019
      7  CD1       58.0830  -13.8360   37.1270 C.3     4  LEU4        0.0001
      8  CD2       56.7430  -12.8740   35.2350 C.3     4  LEU4        0.0001
      9  N         57.9520  -10.6690   39.5640 N.3    11  TYR11      -0.1227
     10  CA        56.8230  -10.4490   38.6710 C.3    11  TYR11       0.1736
     11  C         56.8390   -9.0080   38.1750 C.2    11  TYR11       0.2595
     12  O         56.6740   -8.7430   36.9830 O.2    11  TYR11      -0.2718
     13  CB        55.5130  -10.7140   39.4090 C.3    11  TYR11       0.0548
     14  CG        54.2860  -10.5500   38.5470 C.ar   11  TYR11      -0.0200
     15  CD1       54.0010  -11.4590   37.5260 C.ar   11  TYR11      -0.0009
     16  CD2       53.4080   -9.4840   38.7460 C.ar   11  TYR11      -0.0009
     17  CE1       52.8710  -11.3130   36.7260 C.ar   11  TYR11       0.0417
     18  CE2       52.2750   -9.3270   37.9500 C.ar   11  TYR11       0.0417
     19  CZ        52.0140  -10.2450   36.9430 C.ar   11  TYR11       0.1957
     20  OH        50.9000  -10.0960   36.1510 O.3    11  TYR11      -0.2866
     21  N         57.0450   -8.0810   39.1030 N.am   12  VAL12      -0.1980
     22  CA        57.0790   -6.6660   38.7710 C.3    12  VAL12       0.1595
     23  C         58.3970   -6.2710   38.1190 C.2    12  VAL12       0.2287
     24  O         58.4260   -5.4050   37.2460 O.2    12  VAL12      -0.2864
     25  CB        56.8430   -5.8290   40.0250 C.3    12  VAL12       0.0276
     26  CG1       56.8800   -4.3350   39.7240 C.3    12  VAL12       0.0022
     27  CG2       55.4610   -6.1710   40.5870 C.3    12  VAL12       0.0022
     28  N         58.8080   -7.5620   34.3590 N.3    15  PHE15      -0.1241
     29  CA        58.0000   -6.7490   33.4620 C.3    15  PHE15       0.1605
     30  C         58.7260   -5.4510   33.1270 C.2    15  PHE15       0.2264
     31  O         58.6560   -4.9550   31.9980 O.2    15  PHE15      -0.2867
     32  CB        56.6550   -6.4300   34.1110 C.3    15  PHE15       0.0534
     33  CG        55.7860   -5.5260   33.2910 C.ar   15  PHE15      -0.0203
     34  CD1       55.3770   -5.9010   32.0170 C.ar   15  PHE15      -0.0042
     35  CD2       55.3650   -4.3010   33.7950 C.ar   15  PHE15      -0.0042
     36  CE1       54.5580   -5.0690   31.2550 C.ar   15  PHE15      -0.0003
     37  CE2       54.5450   -3.4610   33.0390 C.ar   15  PHE15      -0.0003
     38  CZ        54.1410   -3.8500   31.7650 C.ar   15  PHE15      -0.0000
     39  N         61.1840   -6.0530   30.6350 N.3    18  PHE18      -0.1241
     40  CA        60.4700   -6.3460   29.3980 C.3    18  PHE18       0.1605
     41  C         60.2130   -5.0700   28.6100 C.2    18  PHE18       0.2264
     42  O         60.4970   -4.9980   27.4150 O.2    18  PHE18      -0.2867
     43  CB        59.1360   -7.0440   29.6950 C.3    18  PHE18       0.0534
     44  CG        58.2500   -7.1930   28.4880 C.ar   18  PHE18      -0.0203
     45  CD1       58.6480   -7.9720   27.4080 C.ar   18  PHE18      -0.0042
     46  CD2       57.0270   -6.5290   28.4210 C.ar   18  PHE18      -0.0042
     47  CE1       57.8480   -8.0890   26.2740 C.ar   18  PHE18      -0.0003
     48  CE2       56.2140   -6.6390   27.2900 C.ar   18  PHE18      -0.0003
     49  CZ        56.6280   -7.4210   26.2140 C.ar   18  PHE18      -0.0000
     50  N         57.0070   -2.7070   23.1310 N.3    24  GLU24      -0.1245
     51  CA        55.6240   -2.7830   23.5880 C.3    24  GLU24       0.1567
     52  C         54.9340   -1.4270   23.6760 C.2    24  GLU24       0.2260
     53  O         53.8600   -1.2300   23.1120 O.2    24  GLU24      -0.2867
     54  CB        55.5460   -3.4670   24.9600 C.3    24  GLU24       0.0388
     55  CG        54.1230   -3.5640   25.5130 C.3    24  GLU24       0.1160
     56  CD        53.4800   -4.9240   25.2790 C.2    24  GLU24       0.3649
     57  OE1       53.8540   -5.5990   24.2990 O.co2  24  GLU24      -0.2457
     58  OE2       52.5890   -5.3110   26.0680 O.co2  24  GLU24      -0.2457
     59  N         47.2450   -0.2780   34.5230 N.3    58  GLY58      -0.1225
     60  CA        48.4010   -0.4910   35.3680 C.3    58  GLY58       0.1811
     61  C         48.7320    0.8310   36.0210 C.2    58  GLY58       0.2280
     62  O         47.9570    1.3300   36.8360 O.2    58  GLY58      -0.2866
     63  N         49.2740   -1.2610   44.7620 N.3    89  GLU89      -0.1231
     64  CA        50.5510   -0.7090   44.3240 C.3    89  GLU89       0.1699
     65  C         50.4450    0.0130   42.9870 C.2    89  GLU89       0.2592
     66  O         50.9860    1.1080   42.8220 O.2    89  GLU89      -0.2718
     67  CB        51.5990   -1.8180   44.2220 C.3    89  GLU89       0.0402
     68  CG        53.0340   -1.3040   44.2270 C.3    89  GLU89       0.1161
     69  CD        54.0530   -2.4280   44.1950 C.2    89  GLU89       0.3649
     70  OE1       53.8730   -3.4030   44.9580 O.co2  89  GLU89      -0.2457
     71  OE2       55.0320   -2.3340   43.4160 O.co2  89  GLU89      -0.2457
     72  N         49.7620   -0.6030   42.0270 N.am   90  GLN90      -0.1979
     73  CA        49.5890    0.0190   40.7160 C.3    90  GLN90       0.1601
     74  C         48.7710    1.2940   40.8760 C.2    90  GLN90       0.2287
     75  O         49.1010    2.3340   40.3070 O.2    90  GLN90      -0.2864
     76  CB        48.8810   -0.9400   39.7600 C.3    90  GLN90       0.0394
     77  CG        49.7590   -2.0740   39.2750 C.3    90  GLN90       0.0908
     78  CD        50.9850   -1.5790   38.5340 C.2    90  GLN90       0.2608
     79  OE1       51.9180   -1.0440   39.1360 O.2    90  GLN90      -0.2717
     80  NE2       50.9860   -1.7450   37.2200 N.am   90  GLN90      -0.0878
     81  N         50.8100    4.1180   42.0190 N.3    93  LYS93      -0.1245
     82  CA        51.6550    4.6160   40.9370 C.3    93  LYS93       0.1561
     83  C         50.8250    5.4450   39.9580 C.2    93  LYS93       0.2260
     84  O         51.2320    6.5310   39.5450 O.2    93  LYS93      -0.2867
     85  CB        52.3180    3.4520   40.1870 C.3    93  LYS93       0.0271
     86  CG        53.3620    2.6950   40.9930 C.3    93  LYS93       0.0035
     87  CD        53.9790    1.5390   40.1990 C.3    93  LYS93       0.0206
     88  CE        54.9490    0.7300   41.0690 C.3    93  LYS93       0.1093
     89  NZ        55.6050   -0.4130   40.3570 N.3    93  LYS93      -0.1314
     90  N         46.2010   -5.7150   27.7870 N.3   139  GLN139     -0.1245
     91  CA        47.0670   -6.7700   28.2890 C.3   139  GLN139      0.1566
     92  C         46.6750   -7.3030   29.6500 C.2   139  GLN139      0.2260
     93  O         47.5130   -7.3880   30.5500 O.2   139  GLN139     -0.2867
     94  CB        48.5080   -6.2620   28.3490 C.3   139  GLN139      0.0367
     95  CG        49.0700   -5.8740   26.9900 C.3   139  GLN139      0.0905
     96  CD        49.4510   -7.0790   26.1470 C.2   139  GLN139      0.2608
     97  OE1       48.6970   -8.0500   26.0420 O.2   139  GLN139     -0.2717
     98  NE2       50.6220   -7.0120   25.5270 N.am  139  GLN139     -0.0878
     99  N         44.4950  -12.0740   30.2180 N.3   142  TYR142     -0.1227
    100  CA        45.2580  -13.2510   30.6150 C.3   142  TYR142      0.1736
    101  C         44.9420  -13.6150   32.0620 C.2   142  TYR142      0.2595
    102  O         45.0050  -14.7720   32.4500 O.2   142  TYR142     -0.2718
    103  CB        46.7620  -12.9690   30.5360 C.3   142  TYR142      0.0548
    104  CG        47.2490  -12.3510   29.2450 C.ar  142  TYR142     -0.0200
    105  CD1       47.3140  -13.0970   28.0700 C.ar  142  TYR142     -0.0009
    106  CD2       47.6610  -11.0130   29.2040 C.ar  142  TYR142     -0.0009
    107  CE1       47.7810  -12.5260   26.8810 C.ar  142  TYR142      0.0417
    108  CE2       48.1300  -10.4350   28.0170 C.ar  142  TYR142      0.0417
    109  CZ        48.1880  -11.1990   26.8660 C.ar  142  TYR142      0.1957
    110  OH        48.6670  -10.6510   25.7020 O.3   142  TYR142     -0.2866
    111  N         44.6030  -12.6070   32.8850 N.am  143  TYR143     -0.1976
    112  CA        44.3410  -12.7970   34.3050 C.3   143  TYR143      0.1639
    113  C         42.8780  -12.8200   34.6620 C.2   143  TYR143      0.2290
    114  O         42.5150  -12.6080   35.8240 O.2   143  TYR143     -0.2864
    115  CB        45.1070  -11.7020   35.1000 C.3   143  TYR143      0.0560
    116  CG        46.4980  -11.5620   34.5470 C.ar  143  TYR143     -0.0198
    117  CD1       47.4450  -12.5610   34.8020 C.ar  143  TYR143     -0.0009
    118  CD2       46.8750  -10.4900   33.7380 C.ar  143  TYR143     -0.0009
    119  CE1       48.7230  -12.4990   34.2560 C.ar  143  TYR143      0.0417
    120  CE2       48.1510  -10.4200   33.1880 C.ar  143  TYR143      0.0417
    121  CZ        49.0670  -11.4280   33.4490 C.ar  143  TYR143      0.1957
    122  OH        50.3230  -11.3730   32.8870 O.3   143  TYR143     -0.2866
    123  N         48.4280  -10.2490   22.9350 N.3   169  VAL169     -0.1245
    124  CA        49.3800  -10.6290   21.9110 C.3   169  VAL169      0.1561
    125  C         48.6270  -11.3300   20.7970 C.2   169  VAL169      0.2260
    126  O         47.6110  -11.9910   21.0220 O.2   169  VAL169     -0.2867
    127  CB        50.5040  -11.5400   22.4550 C.3   169  VAL169      0.0252
    128  CG1       51.2580  -10.7970   23.5520 C.3   169  VAL169      0.0019
    129  CG2       49.9380  -12.8670   22.9490 C.3   169  VAL169      0.0019
    130  N         54.6880  -15.6180   20.9210 N.3   175  TRP175     -0.1241
    131  CA        54.0920  -16.1550   22.1400 C.3   175  TRP175      0.1605
    132  C         53.1970  -17.3440   21.8160 C.2   175  TRP175      0.2264
    133  O         53.1800  -18.3400   22.5390 O.2   175  TRP175     -0.2867
    134  CB        53.2720  -15.0780   22.8420 C.3   175  TRP175      0.0550
    135  CG        54.0790  -13.8840   23.2180 C.ar  175  TRP175      0.0003
    136  CD1       54.1530  -12.6990   22.5480 C.ar  175  TRP175      0.0946
    137  CD2       54.9150  -13.7480   24.3720 C.ar  175  TRP175      0.0152
    138  NE1       54.9790  -11.8280   23.2200 N.ar  175  TRP175     -0.2442
    139  CE2       55.4580  -12.4450   24.3430 C.ar  175  TRP175      0.0810
    140  CE3       55.2560  -14.5990   25.4340 C.ar  175  TRP175      0.0012
    141  CZ2       56.3200  -11.9710   25.3350 C.ar  175  TRP175      0.0191
    142  CZ3       56.1140  -14.1260   26.4210 C.ar  175  TRP175      0.0001
    143  CH2       56.6360  -12.8250   26.3630 C.ar  175  TRP175      0.0015
    144  N         53.7680  -21.1060   23.0650 N.3   179  TRP179     -0.1241
    145  CA        52.8060  -21.7880   23.9140 C.3   179  TRP179      0.1605
    146  C         52.2720  -23.0790   23.3290 C.2   179  TRP179      0.2264
    147  O         51.8560  -23.9740   24.0680 O.2   179  TRP179     -0.2867
    148  CB        51.6440  -20.8610   24.2380 C.3   179  TRP179      0.0550
    149  CG        52.0470  -19.6530   24.9960 C.ar  179  TRP179      0.0003
    150  CD1       53.1450  -19.5080   25.7920 C.ar  179  TRP179      0.0946
    151  CD2       51.3260  -18.4270   25.0770 C.ar  179  TRP179      0.0152
    152  NE1       53.1500  -18.2620   26.3690 N.ar  179  TRP179     -0.2442
    153  CE2       52.0410  -17.5790   25.9470 C.ar  179  TRP179      0.0810
    154  CE3       50.1360  -17.9610   24.5030 C.ar  179  TRP179      0.0012
    155  CZ2       51.6090  -16.2940   26.2510 C.ar  179  TRP179      0.0191
    156  CZ3       49.7080  -16.6870   24.8070 C.ar  179  TRP179      0.0001
    157  CH2       50.4390  -15.8670   25.6740 C.ar  179  TRP179      0.0015
    158  N         46.8480  -17.6890   35.3930 N.3   192  CYS192     -0.1221
    159  CA        47.0690  -17.1190   34.0780 C.3   192  CYS192      0.1808
    160  C         46.5750  -17.9800   32.9210 C.2   192  CYS192      0.2601
    161  O         46.7940  -19.1930   32.8930 O.2   192  CYS192     -0.2717
    162  CB        48.5720  -16.8450   33.9220 C.3   192  CYS192      0.0970
    163  SG        49.1210  -16.0840   32.3700 S.3   192  CYS192     -0.0800
    164  N         45.9000  -17.3380   31.9720 N.am  193  GLN193     -0.1965
    165  CA        45.4040  -18.0140   30.7810 C.3   193  GLN193      0.1733
    166  C         46.2840  -17.5680   29.6290 C.2   193  GLN193      0.2616
    167  O         46.4730  -16.3680   29.4180 O.2   193  GLN193     -0.2715
    168  CB        43.9630  -17.6250   30.4820 C.3   193  GLN193      0.0408
    169  CG        42.9500  -18.2300   31.4150 C.3   193  GLN193      0.0908
    170  CD        41.5760  -18.2730   30.7880 C.2   193  GLN193      0.2608
    171  OE1       41.3900  -18.8760   29.7310 O.2   193  GLN193     -0.2717
    172  NE2       40.6060  -17.6330   31.4300 N.am  193  GLN193     -0.0878
    173  N         46.8230  -18.5320   28.8930 N.am  194  TYR194     -0.1974
    174  CA        47.7080  -18.2380   27.7730 C.3   194  TYR194      0.1639
    175  C         46.9150  -18.1700   26.4880 C.2   194  TYR194      0.2290
    176  O         46.9090  -19.1120   25.7040 O.2   194  TYR194     -0.2864
    177  CB        48.8340  -19.2780   27.6840 C.3   194  TYR194      0.0560
    178  CG        49.6010  -19.3260   28.9590 C.ar  194  TYR194     -0.0198
    179  CD1       49.0220  -19.8450   30.1270 C.ar  194  TYR194     -0.0009
    180  CD2       50.8890  -18.8330   29.0310 C.ar  194  TYR194     -0.0009
    181  CE1       49.6970  -19.8330   31.3430 C.ar  194  TYR194      0.0417
    182  CE2       51.5760  -18.8140   30.2420 C.ar  194  TYR194      0.0417
    183  CZ        50.9670  -19.2990   31.3960 C.ar  194  TYR194      0.1957
    184  OH        51.6440  -19.2580   32.6070 O.3   194  TYR194     -0.2866
    185  N         59.7980  -13.7740   32.4810 N.3   238  PHE238     -0.1241
    186  CA        58.6880  -13.1540   31.7700 C.3   238  PHE238      0.1605
    187  C         58.2820  -14.0100   30.5760 C.2   238  PHE238      0.2264
    188  O         57.1070  -14.3220   30.3830 O.2   238  PHE238     -0.2867
    189  CB        59.0850  -11.7660   31.2740 C.3   238  PHE238      0.0534
    190  CG        57.9480  -10.9960   30.6780 C.ar  238  PHE238     -0.0203
    191  CD1       57.0590  -10.3070   31.4930 C.ar  238  PHE238     -0.0042
    192  CD2       57.7480  -10.9780   29.3010 C.ar  238  PHE238     -0.0042
    193  CE1       55.9870   -9.6080   30.9450 C.ar  238  PHE238     -0.0003
    194  CE2       56.6770  -10.2820   28.7450 C.ar  238  PHE238     -0.0003
    195  CZ        55.7960   -9.5960   29.5680 C.ar  238  PHE238     -0.0000
    196  N         56.7240  -17.0490   31.9770 N.3   241  GLU241     -0.1245
    197  CA        55.6860  -16.8600   32.9940 C.3   241  GLU241      0.1567
    198  C         56.0110  -17.8120   34.1470 C.2   241  GLU241      0.2260
    199  O         55.1200  -18.4040   34.7660 O.2   241  GLU241     -0.2867
    200  CB        54.3140  -17.1890   32.4010 C.3   241  GLU241      0.0388
    201  CG        53.1090  -16.7300   33.2170 C.3   241  GLU241      0.1160
    202  CD        52.9800  -15.2190   33.2940 C.2   241  GLU241      0.3649
    203  OE1       53.1840  -14.5500   32.2630 O.co2 241  GLU241     -0.2457
    204  OE2       52.6620  -14.6990   34.3850 O.co2 241  GLU241     -0.2457
    205  N         56.7710  -10.0860   19.1160 N.3   277  ASN277     -0.1240
    206  CA        55.8080   -9.6380   20.1160 C.3   277  ASN277      0.1653
    207  C         54.6070   -8.9350   19.4730 C.2   277  ASN277      0.2266
    208  O         53.9680   -8.0820   20.0880 O.2   277  ASN277     -0.2867
    209  CB        56.5110   -8.7000   21.1060 C.3   277  ASN277      0.1155
    210  CG        55.6190   -8.2820   22.2560 C.2   277  ASN277      0.2627
    211  OD1       55.0430   -9.1190   22.9560 O.2   277  ASN277     -0.2716
    212  ND2       55.5090   -6.9790   22.4660 N.am  277  ASN277     -0.0877
@<TRIPOS>BOND
     1   205   206    1
     2   207   208    2
     3   207   206    1
     4   206   209    1
     5   125   126    2
     6   125   124    1
     7   130   131    1
     8   209   210    1
     9   132   131    1
    10   132   133    2
    11   124   127    1
    12   124   123    1
    13   131   134    1
    14   210   212   am
    15   210   211    2
    16   127   129    1
    17   127   128    1
    18   136   135   ar
    19   136   138   ar
    20   134   135    1
    21   144   145    1
    22    53    52    2
    23    50    51    1
    24   135   137   ar
    25   138   139   ar
    26   146   145    1
    27   146   147    2
    28    51    52    1
    29    51    54    1
    30   145   148    1
    31   148   149    1
    32    57    56   ar
    33   139   137   ar
    34   139   141   ar
    35   137   140   ar
    36   154   156   ar
    37   154   151   ar
    38   156   157   ar
    39    54    55    1
    40   149   151   ar
    41   149   150   ar
    42   151   153   ar
    43    56    55    1
    44    56    58   ar
    45   141   143   ar
    46   140   142   ar
    47    98    96   am
    48   157   155   ar
    49   110   109    1
    50   176   175    2
    51   150   152   ar
    52   153   155   ar
    53   153   152   ar
    54    97    96    2
    55    96    95    1
    56    49    47   ar
    57    49    48   ar
    58    47    45   ar
    59   143   142   ar
    60   175   174    1
    61   109   107   ar
    62   109   108   ar
    63   107   105   ar
    64    95    94    1
    65    48    46   ar
    66    45    44   ar
    67    42    41    2
    68   177   174    1
    69   177   178    1
    70   174   173    1
    71    90    91    1
    72   108   106   ar
    73   105   104   ar
    74    91    94    1
    75    91    92    1
    76    46    44   ar
    77    44    43    1
    78    41    40    1
    79   194   192   ar
    80   194   195   ar
    81   173   166   am
    82   178   180   ar
    83   178   179   ar
    84   180   182   ar
    85   106   104   ar
    86   104   103    1
    87   192   190   ar
    88    40    43    1
    89    40    39    1
    90   167   166    2
    91   195   193   ar
    92   166   165    1
    93    92    93    2
    94   171   170    2
    95   179   181   ar
    96    99   100    1
    97   182   183   ar
    98   188   187    2
    99   168   165    1
   100   168   169    1
   101   103   100    1
   102   187   186    1
   103   100   101    1
   104   190   189    1
   105   190   191   ar
   106   165   164    1
   107   170   169    1
   108   170   172   am
   109   193   191   ar
   110    36    38   ar
   111    36    34   ar
   112   189   186    1
   113   181   183   ar
   114   183   184    1
   115    38    37   ar
   116   186   185    1
   117   164   160   am
   118   196   197    1
   119    31    30    2
   120    34    33   ar
   121   101   102    2
   122   101   111   am
   123   203   202   ar
   124   163   162    1
   125   200   197    1
   126   200   201    1
   127   111   112    1
   128   122   121    1
   129   161   160    2
   130   160   159    1
   131   197   198    1
   132    37    35   ar
   133    30    29    1
   134   120   121   ar
   135   120   118   ar
   136   201   202    1
   137    33    35   ar
   138    33    32    1
   139   202   204   ar
   140   121   119   ar
   141    29    32    1
   142    29    28    1
   143   118   116   ar
   144   162   159    1
   145   159   158    1
   146   198   199    2
   147   119   117   ar
   148   112   113    1
   149   112   115    1
   150    59    60    1
   151   116   117   ar
   152   116   115    1
   153   113   114    2
   154     8     6    1
   155    60    61    1
   156    61    62    2
   157    20    19    1
   158     5     6    1
   159     5     2    1
   160     6     7    1
   161    17    19   ar
   162    17    15   ar
   163    19    18   ar
   164    12    11    2
   165    80    78   am
   166    24    23    2
   167     1     2    1
   168    15    14   ar
   169     2     3    1
   170    18    16   ar
   171    23    22    1
   172    11    10    1
   173    11    21   am
   174    78    79    2
   175    78    77    1
   176    14    16   ar
   177    14    13    1
   178     3     4    2
   179    10    13    1
   180    10     9    1
   181    22    21    1
   182    22    25    1
   183    77    76    1
   184    84    83    2
   185    26    25    1
   186    76    73    1
   187    83    82    1
   188    25    27    1
   189    85    82    1
   190    85    86    1
   191    87    86    1
   192    87    88    1
   193    75    74    2
   194    89    88    1
   195    73    74    1
   196    73    72    1
   197    82    81    1
   198    72    65   am
   199    66    65    2
   200    65    64    1
   201    71    69   ar
   202    69    68    1
   203    69    70   ar
   204    67    68    1
   205    67    64    1
   206    64    63    1
