@<TRIPOS>MOLECULE
tmp/2aouB01.pdb
 135 133 0 0 0
SMALL
GASTEIGER

@<TRIPOS>ATOM
      1  N         40.3230  -50.0920    6.2270 N.3     2  MET2       -0.1230
      2  CA        40.9680  -48.8320    5.8910 C.3     2  MET2        0.1702
      3  C         40.1190  -47.6800    6.4050 C.2     2  MET2        0.2592
      4  O         38.8920  -47.7660    6.4200 O.2     2  MET2       -0.2718
      5  CB        41.1450  -48.7240    4.3770 C.3     2  MET2        0.0401
      6  CG        41.9720  -49.8500    3.7850 C.3     2  MET2        0.0596
      7  SD        42.0400  -49.7690    1.9980 S.3     2  MET2       -0.1393
      8  CE        40.3730  -50.2710    1.5730 C.3     2  MET2        0.0692
      9  N         40.7780  -46.6090    6.8360 N.am    3  ARG3       -0.1966
     10  CA        40.0830  -45.4350    7.3590 C.3     3  ARG3        0.1729
     11  C         40.3160  -44.2190    6.4680 C.2     3  ARG3        0.2616
     12  O         41.3830  -44.0660    5.8730 O.2     3  ARG3       -0.2715
     13  CB        40.5520  -45.1360    8.7880 C.3     3  ARG3        0.0348
     14  CG        39.9780  -46.2150    9.7310 C.3     3  ARG3        0.0492
     15  CD        40.0940  -45.7440   11.1620 C.3     3  ARG3        0.2205
     16  NE        41.5370  -45.4330   11.2180 N.pl3   3  ARG3       -0.0865
     17  CZ        42.2040  -45.1580   12.3260 C.cat   3  ARG3        0.5346
     18  NH1       41.5890  -45.1820   13.5160 N.pl3   3  ARG3        0.1354
     19  NH2       43.4650  -44.7730   12.2080 N.pl3   3  ARG3        0.1354
     20  N         39.3060  -43.3610    6.3780 N.am    4  SER4       -0.1950
     21  CA        39.4020  -42.1540    5.5700 C.3     4  SER4        0.1924
     22  C         40.5660  -41.3170    6.0930 C.2     4  SER4        0.2314
     23  O         40.7690  -41.2150    7.3000 O.2     4  SER4       -0.2863
     24  CB        38.0960  -41.3630    5.6500 C.3     4  SER4        0.2116
     25  OG        38.0740  -40.3300    4.6810 O.3     4  SER4       -0.2180
     26  N         40.1660  -43.4200  -11.1730 N.3   178  LEU178     -0.1231
     27  CA        40.5160  -44.1290   -9.9560 C.3   178  LEU178      0.1693
     28  C         39.2670  -44.4310   -9.1370 C.2   178  LEU178      0.2592
     29  O         39.0580  -45.5550   -8.7010 O.2   178  LEU178     -0.2718
     30  CB        41.4750  -43.2770   -9.1310 C.3   178  LEU178      0.0284
     31  CG        41.8610  -43.7760   -7.7460 C.3   178  LEU178      0.0019
     32  CD1       42.5220  -45.1470   -7.8590 C.3   178  LEU178      0.0001
     33  CD2       42.8000  -42.7680   -7.1040 C.3   178  LEU178      0.0001
     34  N         38.4360  -43.4170   -8.9320 N.am  179  TRP179     -0.1962
     35  CA        37.2180  -43.5810   -8.1530 C.3   179  TRP179      0.1771
     36  C         36.1560  -44.4360   -8.8380 C.2   179  TRP179      0.2619
     37  O         35.4340  -45.1790   -8.1780 O.2   179  TRP179     -0.2715
     38  CB        36.6290  -42.2170   -7.8140 C.3   179  TRP179      0.0590
     39  CG        37.5450  -41.3540   -7.0060 C.ar  179  TRP179      0.0006
     40  CD1       38.5450  -41.7680   -6.1680 C.ar  179  TRP179      0.0946
     41  CD2       37.4910  -39.9290   -6.8920 C.ar  179  TRP179      0.0152
     42  NE1       39.1120  -40.6870   -5.5380 N.ar  179  TRP179     -0.2442
     43  CE2       38.4820  -39.5470   -5.9640 C.ar  179  TRP179      0.0810
     44  CE3       36.6970  -38.9380   -7.4830 C.ar  179  TRP179      0.0012
     45  CZ2       38.6970  -38.2130   -5.6090 C.ar  179  TRP179      0.0191
     46  CZ3       36.9100  -37.6180   -7.1330 C.ar  179  TRP179      0.0001
     47  CH2       37.9010  -37.2650   -6.2050 C.ar  179  TRP179      0.0015
     48  N         36.0550  -44.3290  -10.1580 N.am  180  LYS180     -0.1977
     49  CA        35.0730  -45.1110  -10.9000 C.3   180  LYS180      0.1596
     50  C         35.4660  -46.5810  -10.9340 C.2   180  LYS180      0.2287
     51  O         34.6100  -47.4610  -10.9860 O.2   180  LYS180     -0.2864
     52  CB        34.9480  -44.5840  -12.3320 C.3   180  LYS180      0.0298
     53  CG        34.0280  -43.3860  -12.4680 C.3   180  LYS180      0.0038
     54  CD        34.1810  -42.7070  -13.8210 C.3   180  LYS180      0.0206
     55  CE        33.0390  -41.7300  -14.0750 C.3   180  LYS180      0.1093
     56  NZ        32.6660  -40.9560  -12.8490 N.3   180  LYS180     -0.1314
     57  N         36.6930  -47.5540   -6.6390 N.3   183  GLY183     -0.1210
     58  CA        35.8210  -47.0370   -5.6050 C.3   183  GLY183      0.1956
     59  C         35.1860  -48.1550   -4.8000 C.2   183  GLY183      0.2612
     60  O         35.1050  -48.0910   -3.5730 O.2   183  GLY183     -0.2717
     61  N         34.7480  -49.1920   -5.5040 N.am  184  SER184     -0.1952
     62  CA        34.0980  -50.3420   -4.8880 C.3   184  SER184      0.1924
     63  C         34.9970  -51.1670   -3.9690 C.2   184  SER184      0.2314
     64  O         34.5150  -52.0410   -3.2510 O.2   184  SER184     -0.2863
     65  CB        33.5340  -51.2540   -5.9780 C.3   184  SER184      0.2116
     66  OG        32.6550  -50.5430   -6.8300 O.3   184  SER184     -0.2180
     67  N         36.9020  -49.7660   -1.6320 N.3   186  PHE186     -0.1228
     68  CA        37.0060  -49.0570   -0.3620 C.3   186  PHE186      0.1721
     69  C         35.6680  -48.9710    0.3600 C.2   186  PHE186      0.2437
     70  O         34.6130  -49.1610   -0.2480 O.2   186  PHE186     -0.2733
     71  CB        37.5500  -47.6440   -0.5760 C.3   186  PHE186      0.0547
     72  CG        38.9090  -47.6010   -1.2070 C.ar  186  PHE186     -0.0202
     73  CD1       39.0670  -47.8510   -2.5630 C.ar  186  PHE186     -0.0042
     74  CD2       40.0340  -47.2940   -0.4460 C.ar  186  PHE186     -0.0042
     75  CE1       40.3240  -47.7910   -3.1490 C.ar  186  PHE186     -0.0003
     76  CE2       41.2890  -47.2330   -1.0260 C.ar  186  PHE186     -0.0003
     77  CZ        41.4350  -47.4800   -2.3780 C.ar  186  PHE186     -0.0000
     78  N         35.7010  -48.6770    1.6730 N.am  187  PRO187     -0.2729
     79  CA        34.5390  -48.5450    2.5640 C.3   187  PRO187      0.1401
     80  C         33.5990  -47.3960    2.2010 C.2   187  PRO187      0.2269
     81  O         33.9450  -46.5240    1.4100 O.2   187  PRO187     -0.2865
     82  CB        35.1780  -48.3180    3.9390 C.3   187  PRO187      0.0296
     83  CG        36.5230  -48.9490    3.8170 C.3   187  PRO187      0.0237
     84  CD        36.9500  -48.5300    2.4410 C.3   187  PRO187      0.0939
     85  N         32.6290  -44.2580    2.8490 N.3   189  ASP189     -0.1239
     86  CA        33.1290  -43.0750    3.5520 C.3   189  ASP189      0.1674
     87  C         31.9970  -42.1180    3.9230 C.2   189  ASP189      0.2266
     88  O         31.1080  -41.8470    3.1150 O.2   189  ASP189     -0.2867
     89  CB        34.1460  -42.3370    2.6720 C.3   189  ASP189      0.1410
     90  CG        35.0520  -41.4050    3.4660 C.2   189  ASP189      0.3668
     91  OD1       34.6130  -40.8630    4.5030 O.co2 189  ASP189     -0.2456
     92  OD2       36.2070  -41.2030    3.0370 O.co2 189  ASP189     -0.2456
     93  N         33.6370  -38.0410   -2.7600 N.3   194  TYR194     -0.1241
     94  CA        34.5150  -38.1740   -3.9220 C.3   194  TYR194      0.1605
     95  C         33.8460  -37.5940   -5.1630 C.2   194  TYR194      0.2264
     96  O         33.3550  -38.3390   -6.0050 O.2   194  TYR194     -0.2867
     97  CB        34.9130  -39.6330   -4.1190 C.3   194  TYR194      0.0534
     98  CG        35.6180  -40.1290   -2.8830 C.ar  194  TYR194     -0.0201
     99  CD1       34.8690  -40.4790   -1.7570 C.ar  194  TYR194     -0.0009
    100  CD2       37.0080  -40.2410   -2.8000 C.ar  194  TYR194     -0.0009
    101  CE1       35.4840  -40.9130   -0.5800 C.ar  194  TYR194      0.0417
    102  CE2       37.6340  -40.6440   -1.6280 C.ar  194  TYR194      0.0417
    103  CZ        36.8650  -40.9750   -0.5200 C.ar  194  TYR194      0.1957
    104  OH        37.4800  -41.3490    0.6520 O.3   194  TYR194     -0.2866
    105  N         46.5430  -40.1930   -2.2750 N.3   240  LEU240     -0.1231
    106  CA        45.9840  -40.8160   -3.4700 C.3   240  LEU240      0.1693
    107  C         44.7710  -41.6750   -3.1860 C.2   240  LEU240      0.2593
    108  O         43.8320  -41.7180   -3.9890 O.2   240  LEU240     -0.2718
    109  CB        47.0390  -41.6880   -4.1540 C.3   240  LEU240      0.0284
    110  CG        47.8830  -41.0350   -5.2460 C.3   240  LEU240      0.0019
    111  CD1       49.0830  -41.9250   -5.5690 C.3   240  LEU240      0.0001
    112  CD2       47.0200  -40.8070   -6.4820 C.3   240  LEU240      0.0001
    113  N         44.7940  -42.3500   -2.0400 N.am  241  THR241     -0.1939
    114  CA        43.7200  -43.2590   -1.6570 C.3   241  THR241      0.2028
    115  C         42.7710  -42.7310   -0.5840 C.2   241  THR241      0.2642
    116  O         41.8320  -43.4210   -0.1850 O.2   241  THR241     -0.2714
    117  CB        44.3200  -44.5960   -1.1680 C.3   241  THR241      0.1808
    118  OG1       45.1270  -44.3640   -0.0090 O.3   241  THR241     -0.2208
    119  CG2       45.1980  -45.2040   -2.2490 C.3   241  THR241      0.0379
    120  N         43.0110  -41.5100   -0.1210 N.am  242  GLU242     -0.1963
    121  CA        42.1750  -40.9180    0.9190 C.3   242  GLU242      0.1733
    122  C         42.1290  -41.9050    2.0860 C.2   242  GLU242      0.2617
    123  O         41.1340  -42.0080    2.8030 O.2   242  GLU242     -0.2715
    124  CB        40.7650  -40.6530    0.3840 C.3   242  GLU242      0.0429
    125  CG        40.0000  -39.5740    1.1490 C.3   242  GLU242      0.1163
    126  CD        40.7410  -38.2450    1.1560 C.2   242  GLU242      0.3649
    127  OE1       41.2570  -37.8650    0.0910 O.co2 242  GLU242     -0.2457
    128  OE2       40.8080  -37.5820    2.2140 O.co2 242  GLU242     -0.2457
    129  N         43.2270  -42.6330    2.2580 N.am  243  THR243     -0.1951
    130  CA        43.3570  -43.6280    3.3190 C.3   243  THR243      0.1897
    131  C         44.6490  -43.4190    4.0980 C.2   243  THR243      0.2313
    132  O         45.7340  -43.4940    3.5280 O.2   243  THR243     -0.2863
    133  CB        43.3900  -45.0500    2.7330 C.3   243  THR243      0.1794
    134  OG1       42.1650  -45.3080    2.0420 O.3   243  THR243     -0.2208
    135  CG2       43.5810  -46.0790    3.8360 C.3   243  THR243      0.0378
@<TRIPOS>BOND
     1    55    54    1
     2    55    56    1
     3    54    53    1
     4    53    52    1
     5    52    49    1
     6    26    27    1
     7    51    50    2
     8    50    49    1
     9    49    48    1
    10    48    36   am
    11    27    28    1
    12    27    30    1
    13    28    34   am
    14    28    29    2
    15    30    31    1
    16    34    35    1
    17    36    37    2
    18    36    35    1
    19    35    38    1
    20    32    31    1
    21    38    39    1
    22    31    33    1
    23    44    46   ar
    24    44    41   ar
    25    46    47   ar
    26    39    41   ar
    27    39    40   ar
    28    41    43   ar
    29    66    65    1
    30    57    58    1
    31   112   110    1
    32    47    45   ar
    33    40    42   ar
    34    96    95    2
    35    65    62    1
    36    43    45   ar
    37    43    42   ar
    38    58    59    1
    39   111   110    1
    40    61    62    1
    41    61    59   am
    42   110   109    1
    43    95    94    1
    44    62    63    1
    45    59    60    2
    46   109   106    1
    47    97    94    1
    48    97    98    1
    49   108   107    2
    50    63    64    2
    51    94    93    1
    52   106   107    1
    53   106   105    1
    54   107   113   am
    55    75    73   ar
    56    75    77   ar
    57    98   100   ar
    58    98    99   ar
    59   100   102   ar
    60    73    72   ar
    61    77    76   ar
    62   119   117    1
    63   113   114    1
    64    99   101   ar
    65   114   117    1
    66   114   115    1
    67    67    68    1
    68   102   103   ar
    69    72    71    1
    70    72    74   ar
    71   117   118    1
    72    76    74   ar
    73   115   116    2
    74   115   120   am
    75   101   103   ar
    76    71    68    1
    77   103   104    1
    78    68    69    1
    79    70    69    2
    80   120   121    1
    81   127   126   ar
    82    69    78   am
    83   124   121    1
    84   124   125    1
    85   121   122    1
    86   125   126    1
    87   126   128   ar
    88    81    80    2
    89     8     7    1
    90    78    84    1
    91    78    79    1
    92     7     6    1
    93   134   133    1
    94   122   129   am
    95   122   123    2
    96    80    79    1
    97   129   130    1
    98    84    83    1
    99    79    82    1
   100    89    90    1
   101    89    86    1
   102   133   130    1
   103   133   135    1
   104    85    86    1
   105    92    90   ar
   106    88    87    2
   107   130   131    1
   108    90    91   ar
   109   132   131    2
   110    86    87    1
   111     6     5    1
   112    83    82    1
   113     5     2    1
   114    25    24    1
   115    21    24    1
   116    21    22    1
   117    21    20    1
   118    12    11    2
   119     2     1    1
   120     2     3    1
   121    22    23    2
   122    20    11   am
   123     3     4    2
   124     3     9   am
   125    11    10    1
   126     9    10    1
   127    10    13    1
   128    13    14    1
   129    14    15    1
   130    15    16    1
   131    16    17    2
   132    19    17    1
   133    17    18    1
