@<TRIPOS>MOLECULE
tmp/2aouA01.pdb
 179 176 0 0 0
SMALL
GASTEIGER

@<TRIPOS>ATOM
      1  N         58.3560  -25.5840   39.3830 N.3     1  MET1       -0.1230
      2  CA        58.3910  -24.1720   39.0660 C.3     1  MET1        0.1702
      3  C         57.1750  -23.4660   39.6340 C.2     1  MET1        0.2592
      4  O         56.3060  -24.1020   40.2270 O.2     1  MET1       -0.2718
      5  CB        58.5050  -23.9750   37.5590 C.3     1  MET1        0.0401
      6  CG        58.3370  -25.2570   36.7570 C.3     1  MET1        0.0596
      7  SD        59.5610  -25.4350   35.4440 S.3     1  MET1       -0.1393
      8  CE        59.4610  -23.8190   34.6670 C.3     1  MET1        0.0692
      9  N         57.0800  -22.1600   39.4580 N.am    2  ARG2       -0.1966
     10  CA        55.9070  -21.4720   39.9710 C.3     2  ARG2        0.1729
     11  C         55.5840  -20.2580   39.1180 C.2     2  ARG2        0.2616
     12  O         56.4720  -19.4650   38.7740 O.2     2  ARG2       -0.2715
     13  CB        56.1040  -21.0740   41.4310 C.3     2  ARG2        0.0348
     14  CG        57.2670  -20.1910   41.6700 C.3     2  ARG2        0.0492
     15  CD        57.2510  -20.0480   43.1580 C.3     2  ARG2        0.2205
     16  NE        58.2050  -19.0100   43.5110 N.pl3   2  ARG2       -0.0865
     17  CZ        59.0770  -19.0880   44.5090 C.cat   2  ARG2        0.5346
     18  NH1       58.9200  -20.0820   45.4100 N.pl3   2  ARG2        0.1354
     19  NH2       59.9090  -18.0570   44.7170 N.pl3   2  ARG2        0.1354
     20  N         54.3020  -20.1440   38.7640 N.am    3  SER3       -0.1950
     21  CA        53.9210  -19.0450   37.9120 C.3     3  SER3        0.1924
     22  C         54.5490  -17.7420   38.3980 C.2     3  SER3        0.2314
     23  O         54.6200  -17.4930   39.6140 O.2     3  SER3       -0.2863
     24  CB        52.4130  -18.8750   37.8340 C.3     3  SER3        0.2116
     25  OG        52.0760  -17.8920   36.8640 O.3     3  SER3       -0.2180
     26  N         52.4430  -17.2240   20.7270 N.3   176  ASP176     -0.1239
     27  CA        51.5500  -18.2830   20.2880 C.3   176  ASP176      0.1674
     28  C         52.3540  -19.5280   19.9010 C.2   176  ASP176      0.2266
     29  O         51.9980  -20.6440   20.2670 O.2   176  ASP176     -0.2867
     30  CB        50.7080  -17.7960   19.1070 C.3   176  ASP176      0.1410
     31  CG        49.8670  -18.8990   18.5010 C.2   176  ASP176      0.3668
     32  OD1       50.3420  -19.5580   17.5530 O.co2 176  ASP176     -0.2456
     33  OD2       48.7360  -19.1160   18.9840 O.co2 176  ASP176     -0.2456
     34  N         55.4050  -20.2640   20.9030 N.3   178  LEU178     -0.1231
     35  CA        55.9900  -20.6970   22.1670 C.3   178  LEU178      0.1693
     36  C         55.0400  -21.4790   23.0640 C.2   178  LEU178      0.2592
     37  O         55.4540  -22.4050   23.7530 O.2   178  LEU178     -0.2718
     38  CB        56.5050  -19.4800   22.9390 C.3   178  LEU178      0.0284
     39  CG        56.8480  -19.6950   24.4140 C.3   178  LEU178      0.0019
     40  CD1       58.0250  -20.6380   24.5400 C.3   178  LEU178      0.0001
     41  CD2       57.1700  -18.3610   25.0540 C.3   178  LEU178      0.0001
     42  N         53.7680  -21.1060   23.0650 N.am  179  TRP179     -0.1962
     43  CA        52.8060  -21.7880   23.9140 C.3   179  TRP179      0.1771
     44  C         52.2720  -23.0790   23.3290 C.2   179  TRP179      0.2619
     45  O         51.8560  -23.9740   24.0680 O.2   179  TRP179     -0.2715
     46  CB        51.6440  -20.8610   24.2380 C.3   179  TRP179      0.0590
     47  CG        52.0470  -19.6530   24.9960 C.ar  179  TRP179      0.0006
     48  CD1       53.1450  -19.5080   25.7920 C.ar  179  TRP179      0.0946
     49  CD2       51.3260  -18.4270   25.0770 C.ar  179  TRP179      0.0152
     50  NE1       53.1500  -18.2620   26.3690 N.ar  179  TRP179     -0.2442
     51  CE2       52.0410  -17.5790   25.9470 C.ar  179  TRP179      0.0810
     52  CE3       50.1360  -17.9610   24.5030 C.ar  179  TRP179      0.0012
     53  CZ2       51.6090  -16.2940   26.2510 C.ar  179  TRP179      0.0191
     54  CZ3       49.7080  -16.6870   24.8070 C.ar  179  TRP179      0.0001
     55  CH2       50.4390  -15.8670   25.6740 C.ar  179  TRP179      0.0015
     56  N         52.2730  -23.1700   22.0040 N.am  180  LYS180     -0.1977
     57  CA        51.7900  -24.3630   21.3260 C.3   180  LYS180      0.1596
     58  C         52.8340  -25.4700   21.3870 C.2   180  LYS180      0.2287
     59  O         52.4970  -26.6370   21.5570 O.2   180  LYS180     -0.2864
     60  CB        51.4750  -24.0540   19.8590 C.3   180  LYS180      0.0298
     61  CG        50.2150  -23.2400   19.6420 C.3   180  LYS180      0.0038
     62  CD        50.0850  -22.7860   18.1900 C.3   180  LYS180      0.0206
     63  CE        48.7610  -22.0700   17.9600 C.3   180  LYS180      0.1093
     64  NZ        48.6010  -21.5850   16.5590 N.3   180  LYS180     -0.1314
     65  N         55.5090  -25.6700   23.6610 N.3   182  TYR182     -0.1227
     66  CA        55.9800  -26.0360   24.9910 C.3   182  TYR182      0.1736
     67  C         54.9100  -25.9300   26.0640 C.2   182  TYR182      0.2596
     68  O         55.2160  -25.9220   27.2550 O.2   182  TYR182     -0.2718
     69  CB        57.1800  -25.1740   25.3870 C.3   182  TYR182      0.0548
     70  CG        58.3820  -25.3450   24.4890 C.ar  182  TYR182     -0.0200
     71  CD1       58.4470  -24.7100   23.2500 C.ar  182  TYR182     -0.0009
     72  CD2       59.4480  -26.1630   24.8690 C.ar  182  TYR182     -0.0009
     73  CE1       59.5460  -24.8850   22.4100 C.ar  182  TYR182      0.0417
     74  CE2       60.5480  -26.3470   24.0370 C.ar  182  TYR182      0.0417
     75  CZ        60.5890  -25.7060   22.8100 C.ar  182  TYR182      0.1957
     76  OH        61.6620  -25.8960   21.9770 O.3   182  TYR182     -0.2866
     77  N         53.6530  -25.8640   25.6420 N.am  183  GLY183     -0.1942
     78  CA        52.5650  -25.7530   26.5950 C.3   183  GLY183      0.2014
     79  C         52.5250  -26.8530   27.6380 C.2   183  GLY183      0.2639
     80  O         52.4040  -26.5790   28.8300 O.2   183  GLY183     -0.2714
     81  N         52.6280  -28.0990   27.1900 N.am  184  SER184     -0.1949
     82  CA        52.5900  -29.2490   28.0890 C.3   184  SER184      0.1924
     83  C         53.7320  -29.2430   29.1000 C.2   184  SER184      0.2314
     84  O         53.5300  -29.5320   30.2790 O.2   184  SER184     -0.2863
     85  CB        52.6230  -30.5420   27.2800 C.3   184  SER184      0.2116
     86  OG        53.8410  -30.6650   26.6110 O.3   184  SER184     -0.2180
     87  N         54.8650  -27.3340   30.8960 N.3   186  PHE186     -0.1228
     88  CA        54.5980  -26.5880   32.1230 C.3   186  PHE186      0.1721
     89  C         53.3420  -27.0540   32.8540 C.2   186  PHE186      0.2437
     90  O         52.4370  -27.6340   32.2510 O.2   186  PHE186     -0.2733
     91  CB        54.4760  -25.0940   31.8240 C.3   186  PHE186      0.0547
     92  CG        55.6850  -24.5070   31.1660 C.ar  186  PHE186     -0.0202
     93  CD1       55.9210  -24.7070   29.8120 C.ar  186  PHE186     -0.0042
     94  CD2       56.5930  -23.7520   31.9010 C.ar  186  PHE186     -0.0042
     95  CE1       57.0430  -24.1630   29.1960 C.ar  186  PHE186     -0.0003
     96  CE2       57.7180  -23.2040   31.2960 C.ar  186  PHE186     -0.0003
     97  CZ        57.9440  -23.4100   29.9400 C.ar  186  PHE186     -0.0000
     98  N         53.2770  -26.8020   34.1750 N.am  187  PRO187     -0.2718
     99  CA        52.1570  -27.1680   35.0540 C.3   187  PRO187      0.1535
    100  C         50.9140  -26.3140   34.8130 C.2   187  PRO187      0.2598
    101  O         50.9780  -25.2890   34.1370 O.2   187  PRO187     -0.2715
    102  CB        52.7240  -26.9320   36.4570 C.3   187  PRO187      0.0310
    103  CG        54.2130  -27.0250   36.2680 C.3   187  PRO187      0.0237
    104  CD        54.4070  -26.2960   34.9710 C.3   187  PRO187      0.0939
    105  N         49.7850  -26.7350   35.3760 N.am  188  GLN188     -0.1964
    106  CA        48.5420  -25.9850   35.2330 C.3   188  GLN188      0.1733
    107  C         48.7360  -24.6200   35.8900 C.2   188  GLN188      0.2616
    108  O         49.4900  -24.4940   36.8560 O.2   188  GLN188     -0.2715
    109  CB        47.3930  -26.7370   35.9000 C.3   188  GLN188      0.0408
    110  CG        47.2600  -28.1670   35.3580 C.3   188  GLN188      0.0908
    111  CD        46.8040  -28.2090   33.9030 C.2   188  GLN188      0.2608
    112  OE1       45.8130  -27.5930   33.5200 O.2   188  GLN188     -0.2717
    113  NE2       47.5930  -28.8720   33.0740 N.am  188  GLN188     -0.0878
    114  N         48.0590  -23.6020   35.3650 N.am  189  ASP189     -0.1971
    115  CA        48.1810  -22.2520   35.9050 C.3   189  ASP189      0.1709
    116  C         46.8180  -21.6460   36.2180 C.2   189  ASP189      0.2293
    117  O         46.1060  -21.1990   35.3180 O.2   189  ASP189     -0.2864
    118  CB        48.9090  -21.3560   34.9060 C.3   189  ASP189      0.1436
    119  CG        49.4320  -20.0920   35.5420 C.2   189  ASP189      0.3671
    120  OD1       48.7070  -19.5120   36.3760 O.co2 189  ASP189     -0.2456
    121  OD2       50.5630  -19.6760   35.2040 O.co2 189  ASP189     -0.2456
    122  N         46.8230  -18.5320   28.8930 N.3   194  TYR194     -0.1241
    123  CA        47.7080  -18.2380   27.7730 C.3   194  TYR194      0.1605
    124  C         46.9150  -18.1700   26.4880 C.2   194  TYR194      0.2264
    125  O         46.9090  -19.1120   25.7040 O.2   194  TYR194     -0.2867
    126  CB        48.8340  -19.2780   27.6840 C.3   194  TYR194      0.0534
    127  CG        49.6010  -19.3260   28.9590 C.ar  194  TYR194     -0.0201
    128  CD1       49.0220  -19.8450   30.1270 C.ar  194  TYR194     -0.0009
    129  CD2       50.8890  -18.8330   29.0310 C.ar  194  TYR194     -0.0009
    130  CE1       49.6970  -19.8330   31.3430 C.ar  194  TYR194      0.0417
    131  CE2       51.5760  -18.8140   30.2420 C.ar  194  TYR194      0.0417
    132  CZ        50.9670  -19.2990   31.3960 C.ar  194  TYR194      0.1957
    133  OH        51.6440  -19.2580   32.6070 O.3   194  TYR194     -0.2866
    134  N         45.5540  -15.7580   22.9400 N.3   196  THR196     -0.1218
    135  CA        45.9930  -14.7840   21.9460 C.3   196  THR196      0.1862
    136  C         44.7560  -14.2030   21.2700 C.2   196  THR196      0.2287
    137  O         43.6330  -14.5530   21.6190 O.2   196  THR196     -0.2866
    138  CB        46.8380  -15.4430   20.8470 C.3   196  THR196      0.1770
    139  OG1       45.9920  -16.2660   20.0350 O.3   196  THR196     -0.2211
    140  CG2       47.9430  -16.3080   21.4600 C.3   196  THR196      0.0375
    141  N         42.1160  -16.7510   20.1190 N.3   199  ASP199     -0.1239
    142  CA        41.1470  -17.2300   21.0990 C.3   199  ASP199      0.1674
    143  C         40.0260  -16.2040   21.2500 C.2   199  ASP199      0.2266
    144  O         38.8620  -16.5610   21.3750 O.2   199  ASP199     -0.2867
    145  CB        41.8490  -17.4500   22.4420 C.3   199  ASP199      0.1410
    146  CG        42.9700  -18.4640   22.3420 C.2   199  ASP199      0.3668
    147  OD1       42.6780  -19.6630   22.1280 O.co2 199  ASP199     -0.2456
    148  OD2       44.1420  -18.0630   22.4590 O.co2 199  ASP199     -0.2456
    149  N         59.2780  -14.3830   29.7830 N.3   239  LEU239     -0.1231
    150  CA        59.0840  -15.1840   28.5830 C.3   239  LEU239      0.1693
    151  C         58.4630  -16.5440   28.8810 C.2   239  LEU239      0.2593
    152  O         57.8000  -17.1390   28.0280 O.2   239  LEU239     -0.2718
    153  CB        60.4350  -15.3730   27.8940 C.3   239  LEU239      0.0284
    154  CG        60.4870  -15.9580   26.4890 C.3   239  LEU239      0.0019
    155  CD1       59.7070  -15.0580   25.5260 C.3   239  LEU239      0.0001
    156  CD2       61.9460  -16.0740   26.0570 C.3   239  LEU239      0.0001
    157  N         58.6720  -17.0330   30.0960 N.am  240  THR240     -0.1939
    158  CA        58.1420  -18.3320   30.4750 C.3   240  THR240      0.2028
    159  C         57.0420  -18.2580   31.5220 C.2   240  THR240      0.2642
    160  O         56.4850  -19.2840   31.9030 O.2   240  THR240     -0.2714
    161  CB        59.2660  -19.2470   31.0000 C.3   240  THR240      0.1808
    162  OG1       59.8530  -18.6630   32.1710 O.3   240  THR240     -0.2208
    163  CG2       60.3440  -19.4210   29.9360 C.3   240  THR240      0.0379
    164  N         56.7240  -17.0490   31.9770 N.am  241  GLU241     -0.1963
    165  CA        55.6860  -16.8600   32.9940 C.3   241  GLU241      0.1733
    166  C         56.0110  -17.8120   34.1470 C.2   241  GLU241      0.2617
    167  O         55.1200  -18.4040   34.7660 O.2   241  GLU241     -0.2715
    168  CB        54.3140  -17.1890   32.4010 C.3   241  GLU241      0.0429
    169  CG        53.1090  -16.7300   33.2170 C.3   241  GLU241      0.1163
    170  CD        52.9800  -15.2190   33.2940 C.2   241  GLU241      0.3649
    171  OE1       53.1840  -14.5500   32.2630 O.co2 241  GLU241     -0.2457
    172  OE2       52.6620  -14.6990   34.3850 O.co2 241  GLU241     -0.2457
    173  N         57.3050  -17.9460   34.4230 N.am  242  THR242     -0.1951
    174  CA        57.7920  -18.8400   35.4650 C.3   242  THR242      0.1897
    175  C         58.8250  -18.1820   36.3730 C.2   242  THR242      0.2313
    176  O         59.7240  -17.4830   35.9050 O.2   242  THR242     -0.2863
    177  CB        58.4370  -20.1010   34.8360 C.3   242  THR242      0.1794
    178  OG1       57.4680  -20.7810   34.0290 O.3   242  THR242     -0.2208
    179  CG2       58.9500  -21.0440   35.9140 C.3   242  THR242      0.0378
@<TRIPOS>BOND
     1    64    63    1
     2    32    31   ar
     3    63    62    1
     4    62    61    1
     5    31    33   ar
     6    31    30    1
     7    30    27    1
     8    61    60    1
     9    60    57    1
    10    28    29    2
    11    28    27    1
    12   139   138    1
    13   141   142    1
    14    27    26    1
    15   138   140    1
    16   138   135    1
    17    34    35    1
    18   142   143    1
    19   142   145    1
    20   143   144    2
    21   136   137    2
    22   136   135    1
    23    57    58    1
    24    57    56    1
    25    58    59    2
    26   135   134    1
    27    76    75    1
    28    56    44   am
    29   147   146   ar
    30    35    38    1
    31    35    36    1
    32   146   145    1
    33   146   148   ar
    34    73    75   ar
    35    73    71   ar
    36    75    74   ar
    37    38    39    1
    38    36    42   am
    39    36    37    2
    40    42    43    1
    41    71    70   ar
    42    44    43    1
    43    44    45    2
    44    65    66    1
    45    43    46    1
    46    74    72   ar
    47    46    47    1
    48    39    40    1
    49    39    41    1
    50    70    72   ar
    51    70    69    1
    52    52    54   ar
    53    52    49   ar
    54    54    55   ar
    55    66    69    1
    56    66    67    1
    57    47    49   ar
    58    47    48   ar
    59    49    51   ar
    60   155   154    1
    61    77    67   am
    62    77    78    1
    63    55    53   ar
    64   125   124    2
    65    48    50   ar
    66    51    53   ar
    67    51    50   ar
    68   156   154    1
    69    67    68    2
    70   124   123    1
    71   154   153    1
    72    78    79    1
    73    86    85    1
    74    81    79   am
    75    81    82    1
    76    85    82    1
    77    79    80    2
    78   126   123    1
    79   126   127    1
    80   123   122    1
    81   153   150    1
    82   152   151    2
    83    82    83    1
    84   150   151    1
    85   150   149    1
    86   151   157   am
    87   127   129   ar
    88   127   128   ar
    89   129   131   ar
    90    83    84    2
    91    95    93   ar
    92    95    97   ar
    93    93    92   ar
    94   163   161    1
    95    97    96   ar
    96   157   158    1
    97   128   130   ar
    98   131   132   ar
    99   158   161    1
   100   158   159    1
   101    87    88    1
   102   161   162    1
   103    92    91    1
   104    92    94   ar
   105    96    94   ar
   106   130   132   ar
   107   132   133    1
   108   159   160    2
   109   159   164   am
   110    91    88    1
   111   164   165    1
   112    88    89    1
   113    90    89    2
   114   171   170   ar
   115   168   165    1
   116   168   169    1
   117    89    98   am
   118   165   166    1
   119   113   111   am
   120   169   170    1
   121   170   172   ar
   122   112   111    2
   123   111   110    1
   124   178   177    1
   125   101   100    2
   126   166   173   am
   127   166   167    2
   128    98   104    1
   129    98    99    1
   130   173   174    1
   131     8     7    1
   132   100    99    1
   133   100   105   am
   134   177   174    1
   135   177   179    1
   136   118   119    1
   137   118   115    1
   138   104   103    1
   139    99   102    1
   140   121   119   ar
   141   106   105    1
   142   106   107    1
   143   106   109    1
   144   117   116    2
   145   110   109    1
   146   114   107   am
   147   114   115    1
   148     7     6    1
   149   174   175    1
   150   119   120   ar
   151   107   108    2
   152   115   116    1
   153   176   175    2
   154   103   102    1
   155     6     5    1
   156    25    24    1
   157     5     2    1
   158    24    21    1
   159    21    22    1
   160    21    20    1
   161    22    23    2
   162    20    11   am
   163    12    11    2
   164     2     1    1
   165     2     3    1
   166    11    10    1
   167     9     3   am
   168     9    10    1
   169     3     4    2
   170    10    13    1
   171    13    14    1
   172    14    15    1
   173    15    16    1
   174    16    17    2
   175    17    19    1
   176    17    18    1
