@<TRIPOS>MOLECULE
tmp/2aouB00.pdb
 206 199 0 0 0
SMALL
GASTEIGER

@<TRIPOS>ATOM
      1  N         41.3290  -40.7310    5.1770 N.3     5  LEU5       -0.1245
      2  CA        42.4920  -39.9180    5.5230 C.3     5  LEU5        0.1561
      3  C         42.1990  -38.8200    6.5560 C.2     5  LEU5        0.2260
      4  O         43.0270  -38.5390    7.4230 O.2     5  LEU5       -0.2867
      5  CB        43.0800  -39.3020    4.2440 C.3     5  LEU5        0.0270
      6  CG        44.4170  -38.5530    4.3230 C.3     5  LEU5        0.0019
      7  CD1       45.5000  -39.4760    4.8500 C.3     5  LEU5        0.0001
      8  CD2       44.7890  -38.0270    2.9450 C.3     5  LEU5        0.0001
      9  N         44.2310  -36.6500   11.6090 N.3     9  HIS9       -0.1241
     10  CA        44.6910  -35.2780   11.4230 C.3     9  HIS9        0.1621
     11  C         46.1860  -35.1900   11.1300 C.2     9  HIS9        0.2264
     12  O         46.6350  -34.2740   10.4360 O.2     9  HIS9       -0.2867
     13  CB        44.3580  -34.4410   12.6610 C.3     9  HIS9        0.0745
     14  CG        44.7340  -32.9980   12.5340 C.ar    9  HIS9        0.0817
     15  ND1       46.0430  -32.5680   12.5000 N.ar    9  HIS9       -0.2268
     16  CD2       43.9700  -31.8850   12.4190 C.ar    9  HIS9        0.1154
     17  CE1       46.0700  -31.2540   12.3700 C.ar    9  HIS9        0.1986
     18  NE2       44.8260  -30.8150   12.3180 N.ar    9  HIS9       -0.2212
     19  N         46.4580  -36.4940    7.5210 N.3    12  TYR12      -0.1227
     20  CA        45.5920  -35.6200    6.7400 C.3    12  TYR12       0.1736
     21  C         46.3350  -34.3460    6.3670 C.2    12  TYR12       0.2595
     22  O         46.2430  -33.8710    5.2370 O.2    12  TYR12      -0.2718
     23  CB        44.3380  -35.2680    7.5430 C.3    12  TYR12       0.0548
     24  CG        43.3440  -34.4130    6.7920 C.ar   12  TYR12      -0.0200
     25  CD1       42.7320  -34.8760    5.6250 C.ar   12  TYR12      -0.0009
     26  CD2       43.0170  -33.1380    7.2450 C.ar   12  TYR12      -0.0009
     27  CE1       41.8170  -34.0850    4.9270 C.ar   12  TYR12       0.0417
     28  CE2       42.1040  -32.3400    6.5560 C.ar   12  TYR12       0.0417
     29  CZ        41.5110  -32.8160    5.3980 C.ar   12  TYR12       0.1957
     30  OH        40.6370  -32.0060    4.7030 O.3    12  TYR12      -0.2866
     31  N         47.0810  -33.8040    7.3230 N.am   13  VAL13      -0.1980
     32  CA        47.8440  -32.5840    7.1010 C.3    13  VAL13       0.1595
     33  C         49.1260  -32.8310    6.3120 C.2    13  VAL13       0.2287
     34  O         49.3260  -32.2650    5.2330 O.2    13  VAL13      -0.2864
     35  CB        48.2180  -31.9120    8.4450 C.3    13  VAL13       0.0276
     36  CG1       49.2120  -30.7880    8.2120 C.3    13  VAL13       0.0022
     37  CG2       46.9670  -31.3750    9.1220 C.3    13  VAL13       0.0022
     38  N         48.9080  -33.7600    2.6080 N.3    16  PHE16      -0.1241
     39  CA        48.4490  -32.6360    1.7980 C.3    16  PHE16       0.1605
     40  C         49.6420  -31.7580    1.4850 C.2    16  PHE16       0.2264
     41  O         49.7370  -31.1830    0.4020 O.2    16  PHE16      -0.2867
     42  CB        47.4000  -31.8170    2.5530 C.3    16  PHE16       0.0534
     43  CG        47.0680  -30.4970    1.9010 C.ar   16  PHE16      -0.0203
     44  CD1       46.7210  -30.4350    0.5560 C.ar   16  PHE16      -0.0042
     45  CD2       47.0750  -29.3190    2.6440 C.ar   16  PHE16      -0.0042
     46  CE1       46.3840  -29.2190   -0.0400 C.ar   16  PHE16      -0.0003
     47  CE2       46.7380  -28.0990    2.0590 C.ar   16  PHE16      -0.0003
     48  CZ        46.3910  -28.0500    0.7130 C.ar   16  PHE16      -0.0000
     49  N         51.6430  -33.3330   -1.1360 N.3    19  PHE19      -0.1241
     50  CA        50.9290  -33.2870   -2.4060 C.3    19  PHE19       0.1605
     51  C         51.2650  -31.9790   -3.1150 C.2    19  PHE19       0.2264
     52  O         51.6470  -31.9720   -4.2850 O.2    19  PHE19      -0.2867
     53  CB        49.4190  -33.3860   -2.1560 C.3    19  PHE19       0.0534
     54  CG        48.5770  -33.0250   -3.3440 C.ar   19  PHE19      -0.0203
     55  CD1       48.5890  -33.8100   -4.4870 C.ar   19  PHE19      -0.0042
     56  CD2       47.7660  -31.8980   -3.3120 C.ar   19  PHE19      -0.0042
     57  CE1       47.8040  -33.4810   -5.5820 C.ar   19  PHE19      -0.0003
     58  CE2       46.9760  -31.5540   -4.3990 C.ar   19  PHE19      -0.0003
     59  CZ        46.9920  -32.3460   -5.5380 C.ar   19  PHE19      -0.0000
     60  N         49.6140  -28.3530   -8.4160 N.3    25  GLU25      -0.1245
     61  CA        48.3130  -27.9210   -7.9140 C.3    25  GLU25       0.1567
     62  C         48.1810  -26.4050   -7.9010 C.2    25  GLU25       0.2260
     63  O         47.3440  -25.8550   -8.6080 O.2    25  GLU25      -0.2867
     64  CB        48.0700  -28.4700   -6.5020 C.3    25  GLU25       0.0388
     65  CG        46.7880  -27.9600   -5.8360 C.3    25  GLU25       0.1160
     66  CD        45.5550  -28.7870   -6.1600 C.2    25  GLU25       0.3649
     67  OE1       45.5540  -29.5310   -7.1640 O.co2  25  GLU25      -0.2457
     68  OE2       44.5720  -28.6860   -5.4010 O.co2  25  GLU25      -0.2457
     69  N         37.5680  -20.9710    7.6170 N.3    85  GLU85      -0.1245
     70  CA        38.4920  -22.1010    7.6210 C.3    85  GLU85       0.1567
     71  C         38.4290  -22.8170    8.9680 C.2    85  GLU85       0.2260
     72  O         38.6760  -22.2120   10.0040 O.2    85  GLU85      -0.2867
     73  CB        39.9060  -21.5700    7.3650 C.3    85  GLU85       0.0388
     74  CG        41.0260  -22.5730    7.5200 C.3    85  GLU85       0.1160
     75  CD        40.8580  -23.7670    6.6160 C.2    85  GLU85       0.3649
     76  OE1       40.7210  -23.5680    5.3870 O.co2  85  GLU85      -0.2457
     77  OE2       40.8630  -24.9000    7.1430 O.co2  85  GLU85      -0.2457
     78  N         40.4210  -25.2250   10.0820 N.3    87  SER87      -0.1217
     79  CA        41.7340  -25.6070   10.5940 C.3    87  SER87       0.1889
     80  C         42.4930  -24.4400   11.2210 C.2    87  SER87       0.2288
     81  O         42.8310  -23.4720   10.5390 O.2    87  SER87      -0.2866
     82  CB        42.5780  -26.2080    9.4720 C.3    87  SER87       0.2089
     83  OG        43.9060  -26.4150    9.9030 O.3    87  SER87      -0.2183
     84  N         45.4530  -24.5520   12.2770 N.3    89  GLU89      -0.1231
     85  CA        46.8220  -24.5980   11.7710 C.3    89  GLU89       0.1699
     86  C         46.9090  -23.8650   10.4380 C.2    89  GLU89       0.2592
     87  O         47.8670  -23.1410   10.1780 O.2    89  GLU89      -0.2718
     88  CB        47.2910  -26.0470   11.5940 C.3    89  GLU89       0.0402
     89  CG        47.1450  -26.9170   12.8390 C.3    89  GLU89       0.1161
     90  CD        45.7220  -27.4230   13.0350 C.2    89  GLU89       0.3649
     91  OE1       45.2220  -28.1480   12.1460 O.co2  89  GLU89      -0.2457
     92  OE2       45.1030  -27.1000   14.0740 O.co2  89  GLU89      -0.2457
     93  N         45.9090  -24.0640    9.5890 N.am   90  GLN90      -0.1979
     94  CA        45.8560  -23.3960    8.2930 C.3    90  GLN90       0.1601
     95  C         45.7690  -21.8830    8.5120 C.2    90  GLN90       0.2287
     96  O         46.4230  -21.0980    7.8260 O.2    90  GLN90      -0.2864
     97  CB        44.6270  -23.8660    7.5140 C.3    90  GLN90       0.0394
     98  CG        44.7740  -25.2150    6.8280 C.3    90  GLN90       0.0908
     99  CD        45.6460  -25.1470    5.5860 C.2    90  GLN90       0.2608
    100  OE1       46.8680  -25.0190    5.6700 O.2    90  GLN90      -0.2717
    101  NE2       45.0150  -25.2170    4.4210 N.am   90  GLN90      -0.0878
    102  N         49.0900  -20.2490    9.5250 N.3    93  LYS93      -0.1245
    103  CA        49.9760  -20.0630    8.3830 C.3    93  LYS93       0.1561
    104  C         49.5050  -18.8590    7.5720 C.2    93  LYS93       0.2260
    105  O         50.3060  -18.0300    7.1520 O.2    93  LYS93      -0.2867
    106  CB        49.9910  -21.3200    7.5180 C.3    93  LYS93       0.0271
    107  CG        50.7590  -22.4790    8.1830 C.3    93  LYS93       0.0035
    108  CD        50.4780  -23.7320    7.3320 C.3    93  LYS93       0.0206
    109  CE        50.9340  -24.9770    8.0680 C.3    93  LYS93       0.1093
    110  NZ        50.2590  -26.1590    7.4510 N.3    93  LYS93      -0.1314
    111  N         38.8180  -26.3490   -3.6140 N.3   139  GLN139     -0.1245
    112  CA        39.1410  -27.7080   -3.1740 C.3   139  GLN139      0.1566
    113  C         38.6170  -28.0520   -1.7910 C.2   139  GLN139      0.2260
    114  O         39.3360  -28.6510   -0.9930 O.2   139  GLN139     -0.2867
    115  CB        40.6680  -27.9090   -3.1760 C.3   139  GLN139      0.0367
    116  CG        41.3110  -27.7770   -4.5340 C.3   139  GLN139      0.0905
    117  CD        40.9560  -28.9190   -5.4670 C.2   139  GLN139      0.2608
    118  OE1       39.7990  -29.3420   -5.5490 O.2   139  GLN139     -0.2717
    119  NE2       41.9510  -29.4140   -6.1920 N.am  139  GLN139     -0.0878
    120  N         34.5850  -31.3990   -1.1780 N.3   142  TYR142     -0.1227
    121  CA        34.6970  -32.8170   -0.8510 C.3   142  TYR142      0.1736
    122  C         34.3000  -33.0460    0.5920 C.2   142  TYR142      0.2595
    123  O         33.8060  -34.1120    0.9530 O.2   142  TYR142     -0.2718
    124  CB        36.1430  -33.2960   -1.0230 C.3   142  TYR142      0.0548
    125  CG        36.8030  -32.8660   -2.3170 C.ar  142  TYR142     -0.0200
    126  CD1       36.5240  -33.5190   -3.5150 C.ar  142  TYR142     -0.0009
    127  CD2       37.7100  -31.7990   -2.3390 C.ar  142  TYR142     -0.0009
    128  CE1       37.1300  -33.1290   -4.7010 C.ar  142  TYR142      0.0417
    129  CE2       38.3240  -31.3990   -3.5240 C.ar  142  TYR142      0.0417
    130  CZ        38.0280  -32.0710   -4.7030 C.ar  142  TYR142      0.1957
    131  OH        38.6310  -31.6910   -5.8840 O.3   142  TYR142     -0.2866
    132  N         34.5130  -32.0280    1.4120 N.am  143  TYR143     -0.1976
    133  CA        34.2400  -32.1320    2.8350 C.3   143  TYR143      0.1639
    134  C         32.9500  -31.4760    3.3240 C.2   143  TYR143      0.2290
    135  O         32.7790  -31.2070    4.5140 O.2   143  TYR143     -0.2864
    136  CB        35.4720  -31.6060    3.5740 C.3   143  TYR143      0.0560
    137  CG        36.7400  -32.2810    3.0590 C.ar  143  TYR143     -0.0198
    138  CD1       36.8880  -33.6750    3.1330 C.ar  143  TYR143     -0.0009
    139  CD2       37.7490  -31.5470    2.4300 C.ar  143  TYR143     -0.0009
    140  CE1       38.0050  -34.3210    2.5890 C.ar  143  TYR143      0.0417
    141  CE2       38.8760  -32.1860    1.8810 C.ar  143  TYR143      0.0417
    142  CZ        38.9920  -33.5710    1.9630 C.ar  143  TYR143      0.1957
    143  OH        40.0850  -34.2110    1.4180 O.3   143  TYR143     -0.2866
    144  N         38.4750  -31.2760   -8.6790 N.3   169  VAL169     -0.1245
    145  CA        39.1640  -32.0020   -9.7370 C.3   169  VAL169      0.1561
    146  C         38.1790  -32.2550  -10.8790 C.2   169  VAL169      0.2260
    147  O         36.9740  -32.3800  -10.6520 O.2   169  VAL169     -0.2867
    148  CB        39.7600  -33.3410   -9.2380 C.3   169  VAL169      0.0252
    149  CG1       40.8640  -33.0530   -8.2350 C.3   169  VAL169      0.0019
    150  CG2       38.6660  -34.2230   -8.6150 C.3   169  VAL169      0.0019
    151  N         41.6630  -38.8370  -11.0950 N.3   175  TRP175     -0.1241
    152  CA        40.9070  -39.0830   -9.8720 C.3   175  TRP175      0.1605
    153  C         39.5900  -39.7490  -10.2400 C.2   175  TRP175      0.2264
    154  O         39.1340  -40.6780   -9.5690 O.2   175  TRP175     -0.2867
    155  CB        40.6330  -37.7740   -9.1350 C.3   175  TRP175      0.0550
    156  CG        41.8790  -37.1190   -8.6510 C.ar  175  TRP175      0.0003
    157  CD1       42.4910  -36.0200   -9.1840 C.ar  175  TRP175      0.0946
    158  CD2       42.6780  -37.5250   -7.5390 C.ar  175  TRP175      0.0152
    159  NE1       43.6230  -35.7150   -8.4700 N.ar  175  TRP175     -0.2442
    160  CE2       43.7610  -36.6210   -7.4500 C.ar  175  TRP175      0.0810
    161  CE3       42.5790  -38.5620   -6.5980 C.ar  175  TRP175      0.0012
    162  CZ2       44.7470  -36.7230   -6.4550 C.ar  175  TRP175      0.0191
    163  CZ3       43.5580  -38.6620   -5.6040 C.ar  175  TRP175      0.0001
    164  CH2       44.6260  -37.7450   -5.5430 C.ar  175  TRP175      0.0015
    165  N         38.4360  -43.4170   -8.9320 N.3   179  TRP179     -0.1241
    166  CA        37.2180  -43.5810   -8.1530 C.3   179  TRP179      0.1605
    167  C         36.1560  -44.4360   -8.8380 C.2   179  TRP179      0.2264
    168  O         35.4340  -45.1790   -8.1780 O.2   179  TRP179     -0.2867
    169  CB        36.6290  -42.2170   -7.8140 C.3   179  TRP179      0.0550
    170  CG        37.5450  -41.3540   -7.0060 C.ar  179  TRP179      0.0003
    171  CD1       38.5450  -41.7680   -6.1680 C.ar  179  TRP179      0.0946
    172  CD2       37.4910  -39.9290   -6.8920 C.ar  179  TRP179      0.0152
    173  NE1       39.1120  -40.6870   -5.5380 N.ar  179  TRP179     -0.2442
    174  CE2       38.4820  -39.5470   -5.9640 C.ar  179  TRP179      0.0810
    175  CE3       36.6970  -38.9380   -7.4830 C.ar  179  TRP179      0.0012
    176  CZ2       38.6970  -38.2130   -5.6090 C.ar  179  TRP179      0.0191
    177  CZ3       36.9100  -37.6180   -7.1330 C.ar  179  TRP179      0.0001
    178  CH2       37.9010  -37.2650   -6.2050 C.ar  179  TRP179      0.0015
    179  N         47.3120  -39.8780    0.3660 N.3   239  PHE239     -0.1241
    180  CA        46.5880  -38.8030   -0.2990 C.3   239  PHE239      0.1605
    181  C         45.8480  -39.3640   -1.5060 C.2   239  PHE239      0.2264
    182  O         44.6810  -39.0580   -1.7300 O.2   239  PHE239     -0.2867
    183  CB        47.5590  -37.7080   -0.7600 C.3   239  PHE239      0.0534
    184  CG        46.8780  -36.4500   -1.2240 C.ar  239  PHE239     -0.0203
    185  CD1       46.4950  -35.4740   -0.3090 C.ar  239  PHE239     -0.0042
    186  CD2       46.5910  -36.2560   -2.5700 C.ar  239  PHE239     -0.0042
    187  CE1       45.8360  -34.3200   -0.7290 C.ar  239  PHE239     -0.0003
    188  CE2       45.9350  -35.1170   -3.0010 C.ar  239  PHE239     -0.0003
    189  CZ        45.5540  -34.1430   -2.0810 C.ar  239  PHE239     -0.0000
    190  N         43.0110  -41.5100   -0.1210 N.3   242  GLU242     -0.1245
    191  CA        42.1750  -40.9180    0.9190 C.3   242  GLU242      0.1567
    192  C         42.1290  -41.9050    2.0860 C.2   242  GLU242      0.2260
    193  O         41.1340  -42.0080    2.8030 O.2   242  GLU242     -0.2867
    194  CB        40.7650  -40.6530    0.3840 C.3   242  GLU242      0.0388
    195  CG        40.0000  -39.5740    1.1490 C.3   242  GLU242      0.1160
    196  CD        40.7410  -38.2450    1.1560 C.2   242  GLU242      0.3649
    197  OE1       41.2570  -37.8650    0.0910 O.co2 242  GLU242     -0.2457
    198  OE2       40.8080  -37.5820    2.2140 O.co2 242  GLU242     -0.2457
    199  N         46.0790  -34.7390  -12.6370 N.3   279  ASN279     -0.1240
    200  CA        45.4380  -33.9420  -11.5820 C.3   279  ASN279      0.1653
    201  C         44.7120  -32.7380  -12.1980 C.2   279  ASN279      0.2266
    202  O         44.6620  -31.6540  -11.6070 O.2   279  ASN279     -0.2867
    203  CB        46.5100  -33.4780  -10.5730 C.3   279  ASN279      0.1155
    204  CG        45.9270  -32.7450   -9.3490 C.2   279  ASN279      0.2627
    205  OD1       45.1160  -33.2930   -8.6030 O.2   279  ASN279     -0.2716
    206  ND2       46.3710  -31.5080   -9.1350 N.am  279  ASN279     -0.0877
@<TRIPOS>BOND
     1   199   200    1
     2   201   202    2
     3   201   200    1
     4   200   203    1
     5   151   152    1
     6   146   147    2
     7   146   145    1
     8   203   204    1
     9   153   152    1
    10   153   154    2
    11   152   155    1
    12   145   148    1
    13   145   144    1
    14   204   206   am
    15   204   205    2
    16   148   150    1
    17   148   149    1
    18   157   156   ar
    19   157   159   ar
    20   155   156    1
    21   165   166    1
    22   167   168    2
    23   167   166    1
    24   156   158   ar
    25    63    62    2
    26   159   160   ar
    27    60    61    1
    28   166   169    1
    29    61    62    1
    30    61    64    1
    31   169   170    1
    32   158   160   ar
    33   158   161   ar
    34   175   177   ar
    35   175   172   ar
    36   160   162   ar
    37    67    66   ar
    38   177   178   ar
    39   170   172   ar
    40   170   171   ar
    41   172   174   ar
    42   161   163   ar
    43    64    65    1
    44   162   164   ar
    45   178   176   ar
    46   119   117   am
    47   171   173   ar
    48    66    65    1
    49    66    68   ar
    50   174   176   ar
    51   174   173   ar
    52   131   130    1
    53   163   164   ar
    54    57    59   ar
    55    57    55   ar
    56   118   117    2
    57    59    58   ar
    58   117   116    1
    59   130   128   ar
    60   130   129   ar
    61   128   126   ar
    62   116   115    1
    63    55    54   ar
    64    58    56   ar
    65    52    51    2
    66   111   112    1
    67   129   127   ar
    68   126   125   ar
    69    54    56   ar
    70    54    53    1
    71   115   112    1
    72   112   113    1
    73    51    50    1
    74   188   186   ar
    75   188   189   ar
    76   186   184   ar
    77    50    53    1
    78    50    49    1
    79   127   125   ar
    80   125   124    1
    81   189   187   ar
    82   113   114    2
    83   182   181    2
    84   181   180    1
    85   184   183    1
    86   184   185   ar
    87   120   121    1
    88   124   121    1
    89   121   122    1
    90   183   180    1
    91   187   185   ar
    92   180   179    1
    93   190   191    1
    94    46    44   ar
    95    46    48   ar
    96   197   196   ar
    97   194   191    1
    98   194   195    1
    99    41    40    2
   100    44    43   ar
   101   122   123    2
   102   122   132   am
   103    48    47   ar
   104   191   192    1
   105   195   196    1
   106   196   198   ar
   107   132   133    1
   108   143   142    1
   109    40    39    1
   110    39    42    1
   111    39    38    1
   112   141   142   ar
   113   141   139   ar
   114    43    42    1
   115    43    45   ar
   116   142   140   ar
   117    47    45   ar
   118   192   193    2
   119   139   137   ar
   120   140   138   ar
   121   133   134    1
   122   133   136    1
   123     8     6    1
   124   137   138   ar
   125   137   136    1
   126   134   135    2
   127     5     6    1
   128     5     2    1
   129     6     7    1
   130   101    99   am
   131    30    29    1
   132    27    29   ar
   133    27    25   ar
   134     1     2    1
   135    34    33    2
   136    22    21    2
   137    76    75   ar
   138    29    28   ar
   139     2     3    1
   140    99   100    2
   141    99    98    1
   142    25    24   ar
   143    33    32    1
   144    21    20    1
   145    21    31   am
   146    28    26   ar
   147     3     4    2
   148    75    77   ar
   149    75    74    1
   150    20    19    1
   151    20    23    1
   152    24    26   ar
   153    24    23    1
   154    98    97    1
   155    32    31    1
   156    32    35    1
   157   105   104    2
   158   108   109    1
   159   108   107    1
   160    73    74    1
   161    73    70    1
   162   110   109    1
   163    97    94    1
   164   106   107    1
   165   106   103    1
   166   104   103    1
   167    69    70    1
   168    70    71    1
   169    96    95    2
   170    36    35    1
   171    94    95    1
   172    94    93    1
   173   103   102    1
   174    35    37    1
   175    71    72    2
   176    82    83    1
   177    82    79    1
   178    93    86   am
   179    78    79    1
   180    87    86    2
   181    12    11    2
   182    86    85    1
   183    81    80    2
   184    79    80    1
   185    11    10    1
   186    10     9    1
   187    10    13    1
   188    88    85    1
   189    88    89    1
   190    85    84    1
   191    91    90   ar
   192    18    17   ar
   193    18    16   ar
   194    17    15   ar
   195    16    14   ar
   196    15    14   ar
   197    14    13    1
   198    89    90    1
   199    90    92   ar
