@<TRIPOS>MOLECULE
tmp/2aovA00.pdb
 141 137 0 0 0
SMALL
GASTEIGER

@<TRIPOS>ATOM
      1  N         43.2540  -40.3680    5.4530 N.3     5  PHE5       -0.1241
      2  CA        42.6180  -39.2010    6.0410 C.3     5  PHE5        0.1605
      3  C         42.8190  -39.2640    7.5500 C.2     5  PHE5        0.2264
      4  O         42.1180  -38.5950    8.3040 O.2     5  PHE5       -0.2867
      5  CB        41.1320  -39.1380    5.7070 C.3     5  PHE5        0.0534
      6  CG        40.5770  -37.7060    5.8740 C.ar    5  PHE5       -0.0203
      7  CD1       40.5950  -37.0540    7.0650 C.ar    5  PHE5       -0.0042
      8  CD2       40.0030  -37.0450    4.7850 C.ar    5  PHE5       -0.0042
      9  CE1       40.0360  -35.8140    7.2660 C.ar    5  PHE5       -0.0003
     10  CE2       39.4250  -35.8590    4.9650 C.ar    5  PHE5       -0.0003
     11  CZ        39.4560  -35.1620    6.2180 C.ar    5  PHE5       -0.0000
     12  N         46.6220  -35.2360   10.1610 N.3     8  HIS8       -0.1241
     13  CA        47.9300  -34.7330   10.6380 C.3     8  HIS8        0.1621
     14  C         48.9470  -35.8150   11.0010 C.2     8  HIS8        0.2264
     15  O         49.5120  -35.8010   12.0890 O.2     8  HIS8       -0.2867
     16  CB        47.6980  -33.8180   11.8350 C.3     8  HIS8        0.0745
     17  CG        47.0760  -32.5150   11.4550 C.ar    8  HIS8        0.0817
     18  ND1       46.3500  -31.7420   12.3170 N.ar    8  HIS8       -0.2268
     19  CD2       47.0750  -31.8220   10.2760 C.ar    8  HIS8        0.1154
     20  CE1       45.9200  -30.6460   11.7260 C.ar    8  HIS8        0.1986
     21  NE2       46.3560  -30.6750   10.4690 N.ar    8  HIS8       -0.2212
     22  N         48.9740  -38.1450    6.3510 N.3    11  TYR11      -0.1227
     23  CA        48.2560  -37.2980    5.4150 C.3    11  TYR11       0.1736
     24  C         49.1660  -36.1930    4.9030 C.2    11  TYR11       0.2595
     25  O         49.4950  -36.1340    3.7170 O.2    11  TYR11      -0.2718
     26  CB        47.0270  -36.6680    6.0710 C.3    11  TYR11       0.0548
     27  CG        46.0900  -36.0670    5.0490 C.ar   11  TYR11      -0.0200
     28  CD1       45.2630  -36.8830    4.2750 C.ar   11  TYR11      -0.0009
     29  CD2       46.0820  -34.6950    4.7990 C.ar   11  TYR11      -0.0009
     30  CE1       44.4500  -36.3540    3.2740 C.ar   11  TYR11       0.0417
     31  CE2       45.2730  -34.1510    3.7950 C.ar   11  TYR11       0.0417
     32  CZ        44.4610  -34.9890    3.0370 C.ar   11  TYR11       0.1957
     33  OH        43.6680  -34.4680    2.0440 O.3    11  TYR11      -0.2866
     34  N         49.5650  -35.3170    5.8170 N.am   12  VAL12      -0.1980
     35  CA        50.4290  -34.1960    5.4800 C.3    12  VAL12       0.1595
     36  C         51.6850  -34.6160    4.7230 C.2    12  VAL12       0.2287
     37  O         52.0030  -34.0470    3.6800 O.2    12  VAL12      -0.2864
     38  CB        50.8490  -33.4210    6.7460 C.3    12  VAL12       0.0276
     39  CG1       49.6390  -32.7240    7.3470 C.3    12  VAL12       0.0022
     40  CG2       51.4550  -34.3810    7.7550 C.3    12  VAL12       0.0022
     41  N         50.7730  -35.4940    1.3210 N.3    15  PHE15      -0.1241
     42  CA        50.3350  -34.3150    0.5830 C.3    15  PHE15       0.1605
     43  C         51.5530  -33.6330   -0.0330 C.2    15  PHE15       0.2264
     44  O         51.5790  -33.3530   -1.2330 O.2    15  PHE15      -0.2867
     45  CB        49.6100  -33.3420    1.5130 C.3    15  PHE15       0.0534
     46  CG        48.6650  -32.4060    0.8020 C.ar   15  PHE15      -0.0203
     47  CD1       47.4860  -32.8820    0.2330 C.ar   15  PHE15      -0.0042
     48  CD2       48.9370  -31.0410    0.7240 C.ar   15  PHE15      -0.0042
     49  CE1       46.5890  -32.0150   -0.4000 C.ar   15  PHE15      -0.0003
     50  CE2       48.0440  -30.1640    0.0910 C.ar   15  PHE15      -0.0003
     51  CZ        46.8700  -30.6530   -0.4700 C.ar   15  PHE15      -0.0000
     52  N         36.4110  -19.6890    1.1430 N.3    55  ILE55      -0.1231
     53  CA        35.9200  -20.8680    1.8600 C.3    55  ILE55       0.1692
     54  C         36.9940  -21.9310    1.7470 C.2    55  ILE55       0.2592
     55  O         37.3180  -22.3730    0.6450 O.2    55  ILE55      -0.2718
     56  CB        34.6200  -21.4600    1.2550 C.3    55  ILE55       0.0266
     57  CG1       33.5580  -20.3750    1.0710 C.3    55  ILE55       0.0019
     58  CG2       34.0920  -22.5570    2.1750 C.3    55  ILE55       0.0020
     59  CD1       33.1550  -19.6820    2.3590 C.3    55  ILE55       0.0001
     60  N         37.5410  -22.3440    2.8820 N.am   56  GLY56      -0.1957
     61  CA        38.5920  -23.3420    2.8540 C.3    56  GLY56       0.1869
     62  C         39.8570  -22.6590    2.3800 C.2    56  GLY56       0.2309
     63  O         40.7470  -23.2930    1.8000 O.2    56  GLY56      -0.2863
     64  N         37.0420  -18.5730    5.7310 N.3    84  VAL84      -0.1231
     65  CA        36.3520  -19.6140    6.4840 C.3    84  VAL84       0.1692
     66  C         37.2090  -20.8730    6.4360 C.2    84  VAL84       0.2592
     67  O         37.2620  -21.5490    5.4130 O.2    84  VAL84      -0.2718
     68  CB        34.9600  -19.8940    5.8830 C.3    84  VAL84       0.0266
     69  CG1       34.2800  -21.0480    6.6250 C.3    84  VAL84       0.0020
     70  CG2       34.1120  -18.6320    5.9800 C.3    84  VAL84       0.0020
     71  N         37.8850  -21.1800    7.5420 N.am   85  GLU85      -0.1966
     72  CA        38.7750  -22.3460    7.6030 C.3    85  GLU85       0.1718
     73  C         38.7810  -22.9820    8.9980 C.2    85  GLU85       0.2458
     74  O         39.1000  -22.3250    9.9870 O.2    85  GLU85      -0.2730
     75  CB        40.1940  -21.9110    7.1990 C.3    85  GLU85       0.0428
     76  CG        41.2940  -22.9330    7.4100 C.3    85  GLU85       0.1163
     77  CD        41.1000  -24.1830    6.5810 C.2    85  GLU85       0.3649
     78  OE1       40.9530  -24.0550    5.3440 O.co2  85  GLU85      -0.2457
     79  OE2       41.0950  -25.2920    7.1720 O.co2  85  GLU85      -0.2457
     80  N         38.4580  -24.2830    9.0810 N.am   86  PRO86      -0.2716
     81  CA        38.3890  -25.0840   10.3150 C.3    86  PRO86       0.1536
     82  C         39.7000  -25.4250   11.0420 C.2    86  PRO86       0.2599
     83  O         39.7190  -25.5610   12.2730 O.2    86  PRO86      -0.2715
     84  CB        37.6780  -26.3460    9.8470 C.3    86  PRO86       0.0310
     85  CG        38.2910  -26.5390    8.4720 C.3    86  PRO86       0.0237
     86  CD        38.2030  -25.1320    7.8980 C.3    86  PRO86       0.0939
     87  N         40.7790  -25.5780   10.2820 N.am   87  SER87      -0.1950
     88  CA        42.0730  -25.9410   10.8510 C.3    87  SER87       0.1924
     89  C         42.9450  -24.7790   11.3250 C.2    87  SER87       0.2314
     90  O         43.4020  -23.9560   10.5210 O.2    87  SER87      -0.2863
     91  CB        42.8680  -26.7690    9.8390 C.3    87  SER87       0.2116
     92  OG        44.2090  -26.9250   10.2690 O.3    87  SER87      -0.2180
     93  N         46.2110  -24.5100    9.5240 N.3    90  GLN90      -0.1245
     94  CA        46.1290  -23.8030    8.2470 C.3    90  GLN90       0.1566
     95  C         46.0480  -22.2920    8.4570 C.2    90  GLN90       0.2260
     96  O         46.6840  -21.5320    7.7330 O.2    90  GLN90      -0.2867
     97  CB        44.9040  -24.2630    7.4390 C.3    90  GLN90       0.0367
     98  CG        45.0070  -25.6630    6.8430 C.3    90  GLN90       0.0905
     99  CD        46.1400  -25.7980    5.8390 C.2    90  GLN90       0.2608
    100  OE1       47.3110  -25.8550    6.2080 O.2    90  GLN90      -0.2717
    101  NE2       45.7930  -25.8370    4.5620 N.am   90  GLN90      -0.0878
    102  N         33.5580  -24.5490    9.8120 N.3   115  THR115     -0.1203
    103  CA        33.3660  -25.1930    8.5150 C.3   115  THR115      0.1994
    104  C         32.3900  -24.3460    7.7400 C.2   115  THR115      0.2618
    105  O         31.7200  -23.4820    8.3100 O.2   115  THR115     -0.2717
    106  CB        32.7520  -26.6090    8.6290 C.3   115  THR115      0.1784
    107  OG1       31.4420  -26.5120    9.2110 O.3   115  THR115     -0.2211
    108  CG2       33.6290  -27.5200    9.4780 C.3   115  THR115      0.0376
    109  N         32.2850  -24.6040    6.4450 N.am  116  SER116     -0.1951
    110  CA        31.3730  -23.8330    5.6330 C.3   116  SER116      0.1924
    111  C         29.9470  -24.0760    6.1050 C.2   116  SER116      0.2314
    112  O         29.0860  -23.2080    5.9770 O.2   116  SER116     -0.2863
    113  CB        31.5480  -24.1910    4.1490 C.3   116  SER116      0.2116
    114  OG        31.4240  -25.5780    3.9250 O.3   116  SER116     -0.2180
    115  N         38.1020  -27.8700   -2.1610 N.3   140  MET140     -0.1245
    116  CA        37.5720  -28.2080   -0.8090 C.3   140  MET140      0.1570
    117  C         36.1560  -28.8060   -0.7970 C.2   140  MET140      0.2261
    118  O         35.6760  -29.1860    0.2690 O.2   140  MET140     -0.2867
    119  CB        37.6680  -26.9910    0.0990 C.3   140  MET140      0.0387
    120  CG        36.9690  -25.7430   -0.4310 C.3   140  MET140      0.0595
    121  SD        35.1740  -25.8860   -0.4100 S.3   140  MET140     -0.1393
    122  CE        34.8740  -26.1630    1.3330 C.3   140  MET140      0.0692
    123  N         35.2440  -32.1380    0.9990 N.3   143  TYR143     -0.1227
    124  CA        34.9610  -32.1880    2.4300 C.3   143  TYR143      0.1736
    125  C         33.5990  -31.6560    2.8670 C.2   143  TYR143      0.2595
    126  O         33.3440  -31.4880    4.0610 O.2   143  TYR143     -0.2718
    127  CB        36.0600  -31.4400    3.1810 C.3   143  TYR143      0.0548
    128  CG        37.4390  -31.7960    2.6850 C.ar  143  TYR143     -0.0200
    129  CD1       38.1400  -30.9380    1.8330 C.ar  143  TYR143     -0.0009
    130  CD2       38.0250  -33.0190    3.0240 C.ar  143  TYR143     -0.0009
    131  CE1       39.3970  -31.2950    1.3260 C.ar  143  TYR143      0.0417
    132  CE2       39.2690  -33.3840    2.5260 C.ar  143  TYR143      0.0417
    133  CZ        39.9530  -32.5200    1.6780 C.ar  143  TYR143      0.1957
    134  OH        41.1920  -32.8850    1.2000 O.3   143  TYR143     -0.2866
    135  N         32.7170  -31.4000    1.9120 N.am  144  VAL144     -0.1980
    136  CA        31.3870  -30.8900    2.2350 C.3   144  VAL144      0.1595
    137  C         30.4090  -32.0520    2.1780 C.2   144  VAL144      0.2287
    138  O         30.4890  -32.9080    1.2880 O.2   144  VAL144     -0.2864
    139  CB        30.9620  -29.8030    1.2210 C.3   144  VAL144      0.0276
    140  CG1       29.5470  -29.3020    1.5180 C.3   144  VAL144      0.0022
    141  CG2       31.9560  -28.6580    1.2700 C.3   144  VAL144      0.0022
@<TRIPOS>BOND
     1   115   116    1
     2    44    43    2
     3   116   117    1
     4   116   119    1
     5   117   118    2
     6    51    49   ar
     7    51    50   ar
     8   120   121    1
     9   120   119    1
    10   121   122    1
    11    49    47   ar
    12    43    42    1
    13    50    48   ar
    14    47    46   ar
    15    42    41    1
    16    42    45    1
    17    55    54    2
    18    48    46   ar
    19    46    45    1
    20   123   124    1
    21    57    56    1
    22    57    59    1
    23    52    53    1
    24   134   133    1
    25   139   141    1
    26   139   140    1
    27   139   136    1
    28    56    53    1
    29    56    58    1
    30   138   137    2
    31   131   133   ar
    32   131   129   ar
    33   133   132   ar
    34    54    53    1
    35    54    60   am
    36    63    62    2
    37   129   128   ar
    38   135   136    1
    39   135   125   am
    40    33    32    1
    41   137   136    1
    42    62    61    1
    43   124   125    1
    44   124   127    1
    45   132   130   ar
    46   128   130   ar
    47   128   127    1
    48    61    60    1
    49   125   126    2
    50    32    30   ar
    51    32    31   ar
    52    30    28   ar
    53    37    36    2
    54    25    24    2
    55    31    29   ar
    56   114   113    1
    57   113   110    1
    58    28    27   ar
    59   101    99   am
    60    36    35    1
    61     8    10   ar
    62     8     6   ar
    63    29    27   ar
    64    24    23    1
    65    24    34   am
    66    10    11   ar
    67    27    26    1
    68    78    77   ar
    69    67    66    2
    70    23    26    1
    71    23    22    1
    72     1     2    1
    73    35    34    1
    74    35    38    1
    75   110   111    1
    76   110   109    1
    77     5     6    1
    78     5     2    1
    79    64    65    1
    80    99   100    2
    81    99    98    1
    82     6     7   ar
    83    68    70    1
    84    68    65    1
    85    68    69    1
    86   112   111    2
    87     2     3    1
    88    11     9   ar
    89    66    65    1
    90    66    71   am
    91   109   104   am
    92    77    79   ar
    93    77    76    1
    94    38    39    1
    95    38    40    1
    96    98    97    1
    97     7     9   ar
    98    75    76    1
    99    75    72    1
   100    97    94    1
   101    71    72    1
   102     3     4    2
   103    72    73    1
   104    96    95    2
   105   104   105    2
   106   104   103    1
   107    86    85    1
   108    86    80    1
   109    94    95    1
   110    94    93    1
   111    85    84    1
   112   103   106    1
   113   103   102    1
   114   106   107    1
   115   106   108    1
   116    73    80   am
   117    73    74    2
   118    80    81    1
   119    91    92    1
   120    91    88    1
   121    84    81    1
   122    12    13    1
   123    19    21   ar
   124    19    17   ar
   125    87    88    1
   126    87    82   am
   127    81    82    1
   128    21    20   ar
   129    90    89    2
   130    13    14    1
   131    13    16    1
   132    88    89    1
   133    14    15    2
   134    82    83    2
   135    17    16    1
   136    17    18   ar
   137    20    18   ar
