@<TRIPOS>MOLECULE
tmp/2aovA01.pdb
 174 172 0 0 0
SMALL
GASTEIGER

@<TRIPOS>ATOM
      1  N         48.9740  -38.1450    6.3510 N.3    11  TYR11      -0.1241
      2  CA        48.2560  -37.2980    5.4150 C.3    11  TYR11       0.1605
      3  C         49.1660  -36.1930    4.9030 C.2    11  TYR11       0.2264
      4  O         49.4950  -36.1340    3.7170 O.2    11  TYR11      -0.2867
      5  CB        47.0270  -36.6680    6.0710 C.3    11  TYR11       0.0534
      6  CG        46.0900  -36.0670    5.0490 C.ar   11  TYR11      -0.0201
      7  CD1       45.2630  -36.8830    4.2750 C.ar   11  TYR11      -0.0009
      8  CD2       46.0820  -34.6950    4.7990 C.ar   11  TYR11      -0.0009
      9  CE1       44.4500  -36.3540    3.2740 C.ar   11  TYR11       0.0417
     10  CE2       45.2730  -34.1510    3.7950 C.ar   11  TYR11       0.0417
     11  CZ        44.4610  -34.9890    3.0370 C.ar   11  TYR11       0.1957
     12  OH        43.6680  -34.4680    2.0440 O.3    11  TYR11      -0.2866
     13  N         50.7730  -35.4940    1.3210 N.3    15  PHE15      -0.1241
     14  CA        50.3350  -34.3150    0.5830 C.3    15  PHE15       0.1605
     15  C         51.5530  -33.6330   -0.0330 C.2    15  PHE15       0.2264
     16  O         51.5790  -33.3530   -1.2330 O.2    15  PHE15      -0.2867
     17  CB        49.6100  -33.3420    1.5130 C.3    15  PHE15       0.0534
     18  CG        48.6650  -32.4060    0.8020 C.ar   15  PHE15      -0.0203
     19  CD1       47.4860  -32.8820    0.2330 C.ar   15  PHE15      -0.0042
     20  CD2       48.9370  -31.0410    0.7240 C.ar   15  PHE15      -0.0042
     21  CE1       46.5890  -32.0150   -0.4000 C.ar   15  PHE15      -0.0003
     22  CE2       48.0440  -30.1640    0.0910 C.ar   15  PHE15      -0.0003
     23  CZ        46.8700  -30.6530   -0.4700 C.ar   15  PHE15      -0.0000
     24  N         52.8900  -34.8390   -3.0090 N.3    18  PHE18      -0.1241
     25  CA        51.9660  -34.5140   -4.0910 C.3    18  PHE18       0.1605
     26  C         52.3130  -33.1590   -4.7100 C.2    18  PHE18       0.2264
     27  O         52.3500  -33.0170   -5.9340 O.2    18  PHE18      -0.2867
     28  CB        50.5280  -34.5020   -3.5610 C.3    18  PHE18       0.0534
     29  CG        49.5230  -34.0030   -4.5460 C.ar   18  PHE18      -0.0203
     30  CD1       49.4190  -34.5840   -5.8090 C.ar   18  PHE18      -0.0042
     31  CD2       48.6710  -32.9610   -4.2140 C.ar   18  PHE18      -0.0042
     32  CE1       48.4790  -34.1340   -6.7290 C.ar   18  PHE18      -0.0003
     33  CE2       47.7240  -32.4990   -5.1240 C.ar   18  PHE18      -0.0003
     34  CZ        47.6270  -33.0860   -6.3850 C.ar   18  PHE18      -0.0000
     35  N         50.3680  -28.8520   -9.7740 N.3    24  GLU24      -0.1245
     36  CA        49.1600  -28.3640   -9.1010 C.3    24  GLU24       0.1567
     37  C         49.1430  -26.8580   -8.9240 C.2    24  GLU24       0.2260
     38  O         48.2050  -26.1900   -9.3460 O.2    24  GLU24      -0.2867
     39  CB        48.9970  -29.0230   -7.7250 C.3    24  GLU24       0.0388
     40  CG        47.8290  -28.4730   -6.8850 C.3    24  GLU24       0.1160
     41  CD        46.5020  -29.1820   -7.1400 C.2    24  GLU24       0.3649
     42  OE1       46.2490  -29.6000   -8.2900 O.co2  24  GLU24      -0.2457
     43  OE2       45.7030  -29.3160   -6.1910 O.co2  24  GLU24      -0.2457
     44  N         39.5280  -26.4700   -4.3000 N.3   139  GLN139     -0.1245
     45  CA        39.8350  -27.8450   -3.9010 C.3   139  GLN139      0.1566
     46  C         39.3430  -28.2270   -2.5040 C.2   139  GLN139      0.2260
     47  O         40.0950  -28.8410   -1.7420 O.2   139  GLN139     -0.2867
     48  CB        41.3510  -28.0800   -3.9660 C.3   139  GLN139      0.0367
     49  CG        41.9410  -28.0050   -5.3580 C.3   139  GLN139      0.0905
     50  CD        41.5440  -29.1830   -6.2240 C.2   139  GLN139      0.2608
     51  OE1       40.4380  -29.7030   -6.1110 O.2   139  GLN139     -0.2717
     52  NE2       42.4380  -29.5960   -7.1110 N.am  139  GLN139     -0.0878
     53  N         35.3510  -31.6020   -1.6390 N.3   142  TYR142     -0.1227
     54  CA        35.4760  -33.0060   -1.2610 C.3   142  TYR142      0.1736
     55  C         35.1090  -33.2010    0.2050 C.2   142  TYR142      0.2595
     56  O         34.7130  -34.2960    0.6020 O.2   142  TYR142     -0.2718
     57  CB        36.9100  -33.5260   -1.4630 C.3   142  TYR142      0.0548
     58  CG        37.5960  -33.1160   -2.7470 C.ar  142  TYR142     -0.0200
     59  CD1       38.5940  -32.1340   -2.7440 C.ar  142  TYR142     -0.0009
     60  CD2       37.2730  -33.7200   -3.9610 C.ar  142  TYR142     -0.0009
     61  CE1       39.2500  -31.7720   -3.9220 C.ar  142  TYR142      0.0417
     62  CE2       37.9240  -33.3630   -5.1430 C.ar  142  TYR142      0.0417
     63  CZ        38.9090  -32.3910   -5.1150 C.ar  142  TYR142      0.1957
     64  OH        39.5430  -32.0270   -6.2830 O.3   142  TYR142     -0.2866
     65  N         35.2440  -32.1380    0.9990 N.am  143  TYR143     -0.1976
     66  CA        34.9610  -32.1880    2.4300 C.3   143  TYR143      0.1639
     67  C         33.5990  -31.6560    2.8670 C.2   143  TYR143      0.2290
     68  O         33.3440  -31.4880    4.0610 O.2   143  TYR143     -0.2864
     69  CB        36.0600  -31.4400    3.1810 C.3   143  TYR143      0.0560
     70  CG        37.4390  -31.7960    2.6850 C.ar  143  TYR143     -0.0198
     71  CD1       38.1400  -30.9380    1.8330 C.ar  143  TYR143     -0.0009
     72  CD2       38.0250  -33.0190    3.0240 C.ar  143  TYR143     -0.0009
     73  CE1       39.3970  -31.2950    1.3260 C.ar  143  TYR143      0.0417
     74  CE2       39.2690  -33.3840    2.5260 C.ar  143  TYR143      0.0417
     75  CZ        39.9530  -32.5200    1.6780 C.ar  143  TYR143      0.1957
     76  OH        41.1920  -32.8850    1.2000 O.3   143  TYR143     -0.2866
     77  N         39.0760  -31.4710   -9.4490 N.3   169  VAL169     -0.1245
     78  CA        39.6790  -32.2470  -10.5280 C.3   169  VAL169      0.1561
     79  C         38.6740  -32.4040  -11.6650 C.2   169  VAL169      0.2260
     80  O         37.4640  -32.4040  -11.4450 O.2   169  VAL169     -0.2867
     81  CB        40.0960  -33.6440  -10.0500 C.3   169  VAL169      0.0252
     82  CG1       41.2280  -33.5280   -9.0380 C.3   169  VAL169      0.0019
     83  CG2       38.8950  -34.3560   -9.4280 C.3   169  VAL169      0.0019
     84  N         42.0270  -39.1500  -11.9020 N.3   175  TRP175     -0.1241
     85  CA        41.2840  -39.3500  -10.6640 C.3   175  TRP175      0.1605
     86  C         39.8900  -39.8800  -10.9970 C.2   175  TRP175      0.2264
     87  O         39.4090  -40.8230  -10.3710 O.2   175  TRP175     -0.2867
     88  CB        41.1780  -38.0410   -9.8800 C.3   175  TRP175      0.0550
     89  CG        42.4970  -37.4900   -9.4290 C.ar  175  TRP175      0.0003
     90  CD1       43.1990  -36.4610   -9.9980 C.ar  175  TRP175      0.0946
     91  CD2       43.2570  -37.9160   -8.2940 C.ar  175  TRP175      0.0152
     92  NE1       44.3430  -36.2190   -9.2810 N.ar  175  TRP175     -0.2442
     93  CE2       44.4060  -37.0980   -8.2310 C.ar  175  TRP175      0.0810
     94  CE3       43.0790  -38.9100   -7.3220 C.ar  175  TRP175      0.0012
     95  CZ2       45.3780  -37.2420   -7.2300 C.ar  175  TRP175      0.0191
     96  CZ3       44.0450  -39.0580   -6.3240 C.ar  175  TRP175      0.0001
     97  CH2       45.1810  -38.2260   -6.2860 C.ar  175  TRP175      0.0015
     98  N         38.7410  -43.3610   -9.3470 N.3   179  TRP179     -0.1241
     99  CA        37.6350  -43.5160   -8.3950 C.3   179  TRP179      0.1605
    100  C         36.4750  -44.3940   -8.8910 C.2   179  TRP179      0.2264
    101  O         35.9620  -45.2270   -8.1460 O.2   179  TRP179     -0.2867
    102  CB        37.1070  -42.1390   -7.9570 C.3   179  TRP179      0.0550
    103  CG        38.1330  -41.2870   -7.2300 C.ar  179  TRP179      0.0003
    104  CD1       39.1580  -41.7310   -6.4400 C.ar  179  TRP179      0.0946
    105  CD2       38.2030  -39.8520   -7.2000 C.ar  179  TRP179      0.0152
    106  NE1       39.8590  -40.6640   -5.9230 N.ar  179  TRP179     -0.2442
    107  CE2       39.2950  -39.5010   -6.3720 C.ar  179  TRP179      0.0810
    108  CE3       37.4460  -38.8290   -7.7900 C.ar  179  TRP179      0.0012
    109  CZ2       39.6520  -38.1690   -6.1200 C.ar  179  TRP179      0.0191
    110  CZ3       37.8020  -37.4990   -7.5360 C.ar  179  TRP179      0.0001
    111  CH2       38.8980  -37.1860   -6.7070 C.ar  179  TRP179      0.0015
    112  N         35.2890  -37.2640    3.6970 N.3   192  CYS192     -0.1221
    113  CA        35.4830  -36.7240    2.3560 C.3   192  CYS192      0.1808
    114  C         34.9080  -37.6430    1.2810 C.2   192  CYS192      0.2601
    115  O         34.9990  -38.8560    1.3920 O.2   192  CYS192     -0.2717
    116  CB        36.9730  -36.5230    2.0950 C.3   192  CYS192      0.0970
    117  SG        37.8690  -38.0690    1.9800 S.3   192  CYS192     -0.0800
    118  N         34.3260  -37.0630    0.2370 N.am  193  GLN193     -0.1965
    119  CA        33.7550  -37.8560   -0.8490 C.3   193  GLN193      0.1733
    120  C         34.4470  -37.5400   -2.1770 C.2   193  GLN193      0.2616
    121  O         35.1010  -36.5070   -2.2950 O.2   193  GLN193     -0.2715
    122  CB        32.2440  -37.5980   -0.9580 C.3   193  GLN193      0.0408
    123  CG        31.8450  -36.1800   -1.3020 C.3   193  GLN193      0.0908
    124  CD        30.3280  -35.9610   -1.2480 C.2   193  GLN193      0.2608
    125  OE1       29.5690  -36.5930   -1.9820 O.2   193  GLN193     -0.2717
    126  NE2       29.8890  -35.0610   -0.3760 N.am  193  GLN193     -0.0878
    127  N         34.3130  -38.4320   -3.1600 N.am  194  TYR194     -0.1974
    128  CA        34.9180  -38.2430   -4.4800 C.3   194  TYR194      0.1639
    129  C         34.0890  -37.2770   -5.3190 C.2   194  TYR194      0.2290
    130  O         32.8940  -37.4740   -5.4840 O.2   194  TYR194     -0.2864
    131  CB        34.9910  -39.5650   -5.2580 C.3   194  TYR194      0.0560
    132  CG        35.6340  -40.7150   -4.5300 C.ar  194  TYR194     -0.0198
    133  CD1       34.8920  -41.8500   -4.1940 C.ar  194  TYR194     -0.0009
    134  CD2       36.9880  -40.6870   -4.1920 C.ar  194  TYR194     -0.0009
    135  CE1       35.4810  -42.9340   -3.5410 C.ar  194  TYR194      0.0417
    136  CE2       37.5900  -41.7640   -3.5370 C.ar  194  TYR194      0.0417
    137  CZ        36.8320  -42.8850   -3.2140 C.ar  194  TYR194      0.1957
    138  OH        37.4200  -43.9500   -2.5640 O.3   194  TYR194     -0.2866
    139  N         48.6260  -41.2860   -1.0530 N.3   239  PHE239     -0.1227
    140  CA        47.8120  -40.1300   -1.4060 C.3   239  PHE239      0.1736
    141  C         46.7260  -40.5110   -2.4110 C.2   239  PHE239      0.2595
    142  O         45.5620  -40.1400   -2.2500 O.2   239  PHE239     -0.2718
    143  CB        48.6890  -39.0210   -1.9930 C.3   239  PHE239      0.0547
    144  CG        47.9440  -37.7460   -2.2650 C.ar  239  PHE239     -0.0202
    145  CD1       47.4400  -36.9830   -1.2170 C.ar  239  PHE239     -0.0042
    146  CD2       47.7330  -37.3130   -3.5680 C.ar  239  PHE239     -0.0042
    147  CE1       46.7380  -35.8070   -1.4670 C.ar  239  PHE239     -0.0003
    148  CE2       47.0330  -36.1420   -3.8230 C.ar  239  PHE239     -0.0003
    149  CZ        46.5350  -35.3880   -2.7670 C.ar  239  PHE239     -0.0000
    150  N         47.1210  -41.2560   -3.4420 N.am  240  LEU240     -0.1980
    151  CA        46.2040  -41.7000   -4.4920 C.3   240  LEU240      0.1596
    152  C         45.0920  -42.5910   -3.9610 C.2   240  LEU240      0.2287
    153  O         43.9170  -42.3970   -4.2770 O.2   240  LEU240     -0.2864
    154  CB        46.9600  -42.4770   -5.5690 C.3   240  LEU240      0.0297
    155  CG        47.9000  -41.7330   -6.5100 C.3   240  LEU240      0.0022
    156  CD1       48.5840  -42.7300   -7.4400 C.3   240  LEU240      0.0001
    157  CD2       47.1120  -40.7100   -7.3070 C.3   240  LEU240      0.0001
    158  N         44.3410  -42.9930   -0.7210 N.3   242  GLU242     -0.1245
    159  CA        43.7020  -42.4520    0.4670 C.3   242  GLU242      0.1567
    160  C         43.8270  -43.5110    1.5700 C.2   242  GLU242      0.2260
    161  O         42.9680  -43.6250    2.4480 O.2   242  GLU242     -0.2867
    162  CB        42.2300  -42.1330    0.1550 C.3   242  GLU242      0.0388
    163  CG        41.3560  -41.7370    1.3420 C.3   242  GLU242      0.1160
    164  CD        41.8550  -40.5060    2.0700 C.2   242  GLU242      0.3649
    165  OE1       43.0200  -40.5170    2.5190 O.co2 242  GLU242     -0.2457
    166  OE2       41.0820  -39.5290    2.1990 O.co2 242  GLU242     -0.2457
    167  N         46.4400  -34.9680  -13.9380 N.3   279  ASN279     -0.1240
    168  CA        45.8880  -34.1530  -12.8500 C.3   279  ASN279      0.1653
    169  C         45.1180  -32.9260  -13.3440 C.2   279  ASN279      0.2266
    170  O         45.0920  -31.8940  -12.6760 O.2   279  ASN279     -0.2867
    171  CB        47.0280  -33.7120  -11.9220 C.3   279  ASN279      0.1155
    172  CG        46.5370  -33.0940  -10.6190 C.2   279  ASN279      0.2627
    173  OD1       45.6930  -33.6560   -9.9170 O.2   279  ASN279     -0.2716
    174  ND2       47.0890  -31.9410  -10.2790 N.am  279  ASN279     -0.0877
@<TRIPOS>BOND
     1   167   168    1
     2   169   168    1
     3   169   170    2
     4   168   171    1
     5   171   172    1
     6    84    85    1
     7    79    80    2
     8    79    78    1
     9    86    85    1
    10    86    87    2
    11    85    88    1
    12   172   174   am
    13   172   173    2
    14    78    81    1
    15    78    77    1
    16    81    83    1
    17    81    82    1
    18    90    89   ar
    19    90    92   ar
    20    88    89    1
    21    35    36    1
    22    89    91   ar
    23    98    99    1
    24    38    37    2
    25    92    93   ar
    26    36    37    1
    27    36    39    1
    28   100    99    1
    29   100   101    2
    30    99   102    1
    31    91    93   ar
    32    91    94   ar
    33    42    41   ar
    34    93    95   ar
    35   102   103    1
    36   108   110   ar
    37   108   105   ar
    38    39    40    1
    39   110   111   ar
    40   156   155    1
    41    94    96   ar
    42   157   155    1
    43    95    97   ar
    44   103   105   ar
    45   103   104   ar
    46   105   107   ar
    47    41    40    1
    48    41    43   ar
    49    52    50   am
    50    32    34   ar
    51    32    30   ar
    52   111   109   ar
    53   155   154    1
    54   104   106   ar
    55    34    33   ar
    56   107   109   ar
    57   107   106   ar
    58    96    97   ar
    59    64    63    1
    60    50    51    2
    61    50    49    1
    62    27    26    2
    63    30    29   ar
    64   154   151    1
    65   130   129    2
    66    49    48    1
    67   129   128    1
    68   131   132    1
    69   131   128    1
    70    62    63   ar
    71    62    60   ar
    72    33    31   ar
    73    63    61   ar
    74    26    25    1
    75    29    31   ar
    76    29    28    1
    77   132   133   ar
    78   132   134   ar
    79   151   152    1
    80   151   150    1
    81   128   127    1
    82    44    45    1
    83   153   152    2
    84   133   135   ar
    85   134   136   ar
    86    25    28    1
    87    25    24    1
    88    48    45    1
    89    60    58   ar
    90    61    59   ar
    91    45    46    1
    92   148   146   ar
    93   148   149   ar
    94   146   144   ar
    95   135   137   ar
    96   136   137   ar
    97   150   141   am
    98   137   138    1
    99   127   120   am
   100   149   147   ar
   101    58    59   ar
   102    58    57    1
   103    46    47    2
   104   141   142    2
   105   141   140    1
   106   121   120    2
   107   144   143    1
   108   144   145   ar
   109   120   119    1
   110   143   140    1
   111   125   124    2
   112    53    54    1
   113   147   145   ar
   114    57    54    1
   115   140   139    1
   116   123   124    1
   117   123   122    1
   118    54    55    1
   119   124   126   am
   120    16    15    2
   121   122   119    1
   122   119   118    1
   123   158   159    1
   124    23    21   ar
   125    23    22   ar
   126    21    19   ar
   127    15    14    1
   128    22    20   ar
   129   162   159    1
   130   162   163    1
   131    55    56    2
   132    55    65   am
   133    19    18   ar
   134   118   114   am
   135   159   160    1
   136    14    13    1
   137    14    17    1
   138    20    18   ar
   139    18    17    1
   140    65    66    1
   141    76    75    1
   142   114   115    2
   143   114   113    1
   144    73    75   ar
   145    73    71   ar
   146   163   164    1
   147   160   161    2
   148    75    74   ar
   149    71    70   ar
   150   117   116    1
   151    12    11    1
   152   164   166   ar
   153   164   165   ar
   154   116   113    1
   155   113   112    1
   156    66    67    1
   157    66    69    1
   158    74    72   ar
   159    70    72   ar
   160    70    69    1
   161    67    68    2
   162    11     9   ar
   163    11    10   ar
   164     9     7   ar
   165     4     3    2
   166    10     8   ar
   167     7     6   ar
   168     8     6   ar
   169     3     2    1
   170     6     5    1
   171     2     5    1
   172     2     1    1
