@<TRIPOS>MOLECULE
tmp/2aoxB00.pdb
 173 169 0 0 0
SMALL
GASTEIGER

@<TRIPOS>ATOM
      1  N         48.8730  -37.6530    6.4230 N.3    11  TYR11      -0.1241
      2  CA        48.2180  -36.8030    5.4430 C.3    11  TYR11       0.1605
      3  C         49.1720  -35.7530    4.9280 C.2    11  TYR11       0.2264
      4  O         49.6400  -35.8140    3.7830 O.2    11  TYR11      -0.2867
      5  CB        46.9870  -36.1370    6.0830 C.3    11  TYR11       0.0534
      6  CG        46.0210  -35.6340    5.0400 C.ar   11  TYR11      -0.0201
      7  CD1       45.2350  -36.5510    4.3370 C.ar   11  TYR11      -0.0009
      8  CD2       45.9110  -34.2850    4.7200 C.ar   11  TYR11      -0.0009
      9  CE1       44.3650  -36.1400    3.3590 C.ar   11  TYR11       0.0417
     10  CE2       45.0400  -33.8590    3.7390 C.ar   11  TYR11       0.0417
     11  CZ        44.2750  -34.7980    3.0490 C.ar   11  TYR11       0.1957
     12  OH        43.4120  -34.3710    2.0640 O.3    11  TYR11      -0.2866
     13  N         50.4660  -35.0520    1.4360 N.3    15  PHE15      -0.1241
     14  CA        50.0240  -33.8730    0.7020 C.3    15  PHE15       0.1605
     15  C         51.2320  -33.1070    0.1860 C.2    15  PHE15       0.2264
     16  O         51.2830  -32.7130   -0.9770 O.2    15  PHE15      -0.2867
     17  CB        49.1970  -32.9540    1.5930 C.3    15  PHE15       0.0534
     18  CG        48.5800  -31.8140    0.8530 C.ar   15  PHE15      -0.0203
     19  CD1       47.3680  -31.9750    0.1910 C.ar   15  PHE15      -0.0042
     20  CD2       49.2560  -30.5980    0.7380 C.ar   15  PHE15      -0.0042
     21  CE1       46.8440  -30.9470   -0.5770 C.ar   15  PHE15      -0.0003
     22  CE2       48.7360  -29.5630   -0.0330 C.ar   15  PHE15      -0.0003
     23  CZ        47.5280  -29.7400   -0.6930 C.ar   15  PHE15      -0.0000
     24  N         52.8000  -34.6120   -2.5260 N.3    18  PHE18      -0.1227
     25  CA        51.9320  -34.4310   -3.6890 C.3    18  PHE18       0.1736
     26  C         52.2470  -33.1160   -4.4130 C.2    18  PHE18       0.2595
     27  O         52.3340  -33.0710   -5.6420 O.2    18  PHE18      -0.2718
     28  CB        50.4530  -34.4330   -3.2700 C.3    18  PHE18       0.0547
     29  CG        49.5270  -33.9120   -4.3340 C.ar   18  PHE18      -0.0202
     30  CD1       49.4620  -34.5280   -5.5690 C.ar   18  PHE18      -0.0042
     31  CD2       48.7680  -32.7730   -4.1150 C.ar   18  PHE18      -0.0042
     32  CE1       48.6630  -34.0110   -6.5610 C.ar   18  PHE18      -0.0003
     33  CE2       47.9670  -32.2490   -5.0970 C.ar   18  PHE18      -0.0003
     34  CZ        47.9120  -32.8600   -6.3180 C.ar   18  PHE18      -0.0000
     35  N         52.4020  -32.0430   -3.6530 N.am   19  LEU19      -0.1980
     36  CA        52.7070  -30.7650   -4.2570 C.3    19  LEU19       0.1596
     37  C         54.1140  -30.7770   -4.8700 C.2    19  LEU19       0.2287
     38  O         54.3350  -30.2530   -5.9720 O.2    19  LEU19      -0.2864
     39  CB        52.6010  -29.6670   -3.2030 C.3    19  LEU19       0.0297
     40  CG        51.2380  -29.4810   -2.5520 C.3    19  LEU19       0.0022
     41  CD1       51.3160  -28.3750   -1.5340 C.3    19  LEU19       0.0001
     42  CD2       50.2170  -29.1500   -3.6090 C.3    19  LEU19       0.0001
     43  N         50.4360  -28.9290   -9.7980 N.3    24  GLU24      -0.1245
     44  CA        49.2130  -28.4050   -9.2320 C.3    24  GLU24       0.1567
     45  C         49.2680  -26.9150   -9.0870 C.2    24  GLU24       0.2260
     46  O         48.6040  -26.1760   -9.8060 O.2    24  GLU24      -0.2867
     47  CB        48.9520  -29.0030   -7.8600 C.3    24  GLU24       0.0388
     48  CG        47.8920  -28.2430   -7.0550 C.3    24  GLU24       0.1160
     49  CD        46.5230  -28.9020   -7.0620 C.2    24  GLU24       0.3649
     50  OE1       46.2690  -29.7790   -7.9120 O.co2  24  GLU24      -0.2457
     51  OE2       45.6890  -28.5310   -6.2170 O.co2  24  GLU24      -0.2457
     52  N         47.3810  -23.4390  -11.1840 N.3    28  MET28      -0.1245
     53  CA        46.5010  -22.3770  -10.7290 C.3    28  MET28       0.1570
     54  C         47.0970  -21.0060  -10.9660 C.2    28  MET28       0.2261
     55  O         46.3950  -20.0220  -11.1630 O.2    28  MET28      -0.2867
     56  CB        46.1500  -22.5660   -9.2590 C.3    28  MET28       0.0387
     57  CG        45.1950  -23.7360   -9.0700 C.3    28  MET28       0.0595
     58  SD        44.6880  -23.9150   -7.3560 S.3    28  MET28      -0.1393
     59  CE        44.9390  -25.6740   -7.1100 C.3    28  MET28       0.0692
     60  N         39.6760  -26.3460   -4.3260 N.3   139  GLN139     -0.1245
     61  CA        39.9050  -27.6870   -3.8010 C.3   139  GLN139      0.1566
     62  C         39.4120  -27.9730   -2.3740 C.2   139  GLN139      0.2260
     63  O         40.2250  -28.3360   -1.5240 O.2   139  GLN139     -0.2867
     64  CB        41.4010  -28.0080   -3.8430 C.3   139  GLN139      0.0367
     65  CG        42.0390  -27.9380   -5.2090 C.3   139  GLN139      0.0905
     66  CD        41.7970  -29.1630   -6.0580 C.2   139  GLN139      0.2608
     67  OE1       40.6620  -29.6160   -6.2180 O.2   139  GLN139     -0.2717
     68  NE2       42.8650  -29.7010   -6.6230 N.am  139  GLN139     -0.0878
     69  N         35.3710  -31.5050   -1.5280 N.3   142  TYR142     -0.1227
     70  CA        35.5110  -32.8890   -1.0810 C.3   142  TYR142      0.1736
     71  C         35.0490  -33.0340    0.3630 C.2   142  TYR142      0.2595
     72  O         34.5600  -34.0920    0.7720 O.2   142  TYR142     -0.2718
     73  CB        36.9740  -33.3470   -1.2080 C.3   142  TYR142      0.0548
     74  CG        37.5960  -32.9950   -2.5440 C.ar  142  TYR142     -0.0200
     75  CD1       37.2560  -33.7090   -3.6940 C.ar  142  TYR142     -0.0009
     76  CD2       38.4870  -31.9390   -2.6650 C.ar  142  TYR142     -0.0009
     77  CE1       37.7810  -33.3710   -4.9230 C.ar  142  TYR142      0.0417
     78  CE2       39.0180  -31.5890   -3.8910 C.ar  142  TYR142      0.0417
     79  CZ        38.6610  -32.3010   -5.0160 C.ar  142  TYR142      0.1957
     80  OH        39.1610  -31.9490   -6.2540 O.3   142  TYR142     -0.2866
     81  N         35.2050  -31.9270    1.1150 N.am  143  TYR143     -0.1976
     82  CA        34.8860  -31.9660    2.5550 C.3   143  TYR143      0.1639
     83  C         33.5620  -31.3780    2.9020 C.2   143  TYR143      0.2290
     84  O         33.2870  -31.0940    4.0640 O.2   143  TYR143     -0.2864
     85  CB        35.9960  -31.2730    3.3490 C.3   143  TYR143      0.0560
     86  CG        37.3620  -31.5370    2.7240 C.ar  143  TYR143     -0.0198
     87  CD1       37.8360  -32.8520    2.6430 C.ar  143  TYR143     -0.0009
     88  CD2       38.1430  -30.5190    2.1890 C.ar  143  TYR143     -0.0009
     89  CE1       39.0470  -33.1420    2.0320 C.ar  143  TYR143      0.0417
     90  CE2       39.3570  -30.7950    1.5780 C.ar  143  TYR143      0.0417
     91  CZ        39.8010  -32.1030    1.4990 C.ar  143  TYR143      0.1957
     92  OH        40.9880  -32.3750    0.8650 O.3   143  TYR143     -0.2866
     93  N         39.0430  -31.4480   -9.3060 N.3   169  VAL169     -0.1245
     94  CA        39.7430  -32.2070  -10.3250 C.3   169  VAL169      0.1561
     95  C         38.7730  -32.4420  -11.4790 C.2   169  VAL169      0.2260
     96  O         37.6070  -32.7250  -11.2630 O.2   169  VAL169     -0.2867
     97  CB        40.2160  -33.5660   -9.7810 C.3   169  VAL169      0.0252
     98  CG1       41.2270  -33.3590   -8.6850 C.3   169  VAL169      0.0019
     99  CG2       39.0360  -34.3510   -9.2470 C.3   169  VAL169      0.0019
    100  N         42.1340  -39.2010  -11.6600 N.3   175  TRP175     -0.1241
    101  CA        41.3220  -39.3660  -10.4620 C.3   175  TRP175      0.1605
    102  C         39.9560  -39.9510  -10.8110 C.2   175  TRP175      0.2264
    103  O         39.4840  -40.8750  -10.1520 O.2   175  TRP175     -0.2867
    104  CB        41.1280  -38.0330   -9.7520 C.3   175  TRP175      0.0550
    105  CG        42.3770  -37.4160   -9.3110 C.ar  175  TRP175      0.0003
    106  CD1       43.0470  -36.3990   -9.9240 C.ar  175  TRP175      0.0946
    107  CD2       43.1320  -37.7520   -8.1490 C.ar  175  TRP175      0.0152
    108  NE1       44.1770  -36.0740   -9.2140 N.ar  175  TRP175     -0.2442
    109  CE2       44.2520  -36.8910   -8.1160 C.ar  175  TRP175      0.0810
    110  CE3       42.9740  -38.6940   -7.1300 C.ar  175  TRP175      0.0012
    111  CZ2       45.2090  -36.9440   -7.0990 C.ar  175  TRP175      0.0191
    112  CZ3       43.9270  -38.7520   -6.1200 C.ar  175  TRP175      0.0001
    113  CH2       45.0310  -37.8780   -6.1140 C.ar  175  TRP175      0.0015
    114  N         38.6690  -43.4590   -9.2980 N.3   179  TRP179     -0.1241
    115  CA        37.5150  -43.6200   -8.4050 C.3   179  TRP179      0.1605
    116  C         36.3330  -44.4060   -8.9520 C.2   179  TRP179      0.2264
    117  O         35.7180  -45.2020   -8.2320 O.2   179  TRP179     -0.2867
    118  CB        37.0180  -42.2610   -7.9040 C.3   179  TRP179      0.0550
    119  CG        38.0320  -41.5250   -7.1320 C.ar  179  TRP179      0.0003
    120  CD1       39.0130  -42.0590   -6.3520 C.ar  179  TRP179      0.0946
    121  CD2       38.1750  -40.1040   -7.0430 C.ar  179  TRP179      0.0152
    122  NE1       39.7610  -41.0570   -5.7830 N.ar  179  TRP179     -0.2442
    123  CE2       39.2670  -39.8460   -6.1910 C.ar  179  TRP179      0.0810
    124  CE3       37.4790  -39.0170   -7.5980 C.ar  179  TRP179      0.0012
    125  CZ2       39.6800  -38.5510   -5.8830 C.ar  179  TRP179      0.0191
    126  CZ3       37.8860  -37.7400   -7.2880 C.ar  179  TRP179      0.0001
    127  CH2       38.9760  -37.5160   -6.4390 C.ar  179  TRP179      0.0015
    128  N         35.6810  -37.2650    3.9080 N.3   192  CYS192     -0.1235
    129  CA        35.9820  -37.0330    2.5140 C.3   192  CYS192      0.1677
    130  C         34.8100  -37.4710    1.6300 C.2   192  CYS192      0.2270
    131  O         33.8350  -38.0410    2.1200 O.2   192  CYS192     -0.2867
    132  CB        37.2510  -37.7870    2.1390 C.3   192  CYS192      0.0956
    133  SG        37.8370  -37.4260    0.4750 S.3   192  CYS192     -0.0801
    134  N         34.4610  -38.4430   -2.8150 N.3   194  TYR194     -0.1241
    135  CA        34.9760  -38.3640   -4.1830 C.3   194  TYR194      0.1605
    136  C         34.0690  -37.5260   -5.0440 C.2   194  TYR194      0.2264
    137  O         32.9030  -37.8400   -5.1540 O.2   194  TYR194     -0.2867
    138  CB        35.0550  -39.7570   -4.8010 C.3   194  TYR194      0.0534
    139  CG        36.0070  -40.7170   -4.1120 C.ar  194  TYR194     -0.0201
    140  CD1       35.8460  -42.0980   -4.2490 C.ar  194  TYR194     -0.0009
    141  CD2       37.0690  -40.2500   -3.3300 C.ar  194  TYR194     -0.0009
    142  CE1       36.7070  -42.9960   -3.6240 C.ar  194  TYR194      0.0417
    143  CE2       37.9430  -41.1330   -2.6990 C.ar  194  TYR194      0.0417
    144  CZ        37.7550  -42.5140   -2.8470 C.ar  194  TYR194      0.1957
    145  OH        38.5860  -43.4160   -2.1990 O.3   194  TYR194     -0.2866
    146  N         48.5240  -41.2150   -0.8080 N.3   239  PHE239     -0.1241
    147  CA        47.6890  -40.1310   -1.2990 C.3   239  PHE239      0.1605
    148  C         46.6040  -40.6180   -2.2550 C.2   239  PHE239      0.2264
    149  O         45.4260  -40.4140   -1.9940 O.2   239  PHE239     -0.2867
    150  CB        48.5650  -39.0690   -1.9790 C.3   239  PHE239      0.0534
    151  CG        47.8840  -37.7370   -2.1650 C.ar  239  PHE239     -0.0203
    152  CD1       47.3990  -37.0290   -1.0720 C.ar  239  PHE239     -0.0042
    153  CD2       47.7410  -37.1840   -3.4310 C.ar  239  PHE239     -0.0042
    154  CE1       46.7830  -35.7920   -1.2390 C.ar  239  PHE239     -0.0003
    155  CE2       47.1290  -35.9530   -3.6010 C.ar  239  PHE239     -0.0003
    156  CZ        46.6500  -35.2580   -2.5040 C.ar  239  PHE239     -0.0000
    157  N         44.3030  -42.4830   -0.4510 N.3   242  GLU242     -0.1245
    158  CA        43.7640  -41.7570    0.6870 C.3   242  GLU242      0.1567
    159  C         43.6950  -42.6920    1.8860 C.2   242  GLU242      0.2260
    160  O         42.7320  -42.6510    2.6550 O.2   242  GLU242     -0.2867
    161  CB        42.3580  -41.2310    0.3590 C.3   242  GLU242      0.0388
    162  CG        41.9220  -40.0280    1.1940 C.3   242  GLU242      0.1160
    163  CD        42.3260  -38.6780    0.5680 C.2   242  GLU242      0.3649
    164  OE1       43.4290  -38.5710   -0.0320 O.co2 242  GLU242     -0.2457
    165  OE2       41.5340  -37.7130    0.6920 O.co2 242  GLU242     -0.2457
    166  N         46.5020  -35.1180  -13.6940 N.3   279  ASN279     -0.1240
    167  CA        45.9340  -34.2870  -12.6280 C.3   279  ASN279      0.1653
    168  C         45.2220  -33.0430  -13.1440 C.2   279  ASN279      0.2266
    169  O         45.1310  -32.0420  -12.4560 O.2   279  ASN279     -0.2867
    170  CB        47.0290  -33.8710  -11.6630 C.3   279  ASN279      0.1155
    171  CG        46.4990  -33.1740  -10.4460 C.2   279  ASN279      0.2627
    172  OD1       45.6830  -33.7160   -9.7140 O.2   279  ASN279     -0.2716
    173  ND2       46.9710  -31.9640  -10.2130 N.am  279  ASN279     -0.0877
@<TRIPOS>BOND
     1   166   167    1
     2   168   167    1
     3   168   169    2
     4   167   170    1
     5   170   171    1
     6   100   101    1
     7    95    96    2
     8    95    94    1
     9    52    53    1
    10    55    54    2
    11    54    53    1
    12   102   101    1
    13   102   103    2
    14    53    56    1
    15   101   104    1
    16   171   173   am
    17   171   172    2
    18    94    97    1
    19    94    93    1
    20   106   105   ar
    21   106   108   ar
    22    46    45    2
    23    43    44    1
    24    97    99    1
    25    97    98    1
    26   104   105    1
    27   105   107   ar
    28   114   115    1
    29    56    57    1
    30    44    45    1
    31    44    47    1
    32   108   109   ar
    33    57    58    1
    34   116   115    1
    35   116   117    2
    36   115   118    1
    37   107   109   ar
    38   107   110   ar
    39   109   111   ar
    40    50    49   ar
    41   118   119    1
    42    47    48    1
    43   124   126   ar
    44   124   121   ar
    45    58    59    1
    46   126   127   ar
    47   119   121   ar
    48   119   120   ar
    49   110   112   ar
    50   111   113   ar
    51    49    48    1
    52    49    51   ar
    53   121   123   ar
    54    68    66   am
    55    32    34   ar
    56    32    30   ar
    57   127   125   ar
    58   120   122   ar
    59    34    33   ar
    60    80    79    1
    61    67    66    2
    62   123   125   ar
    63   123   122   ar
    64   112   113   ar
    65    66    65    1
    66    38    37    2
    67    27    26    2
    68    30    29   ar
    69    65    64    1
    70   137   136    2
    71    33    31   ar
    72   136   135    1
    73    79    77   ar
    74    79    78   ar
    75    77    75   ar
    76    37    36    1
    77   138   135    1
    78   138   139    1
    79    26    25    1
    80    26    35   am
    81    29    31   ar
    82    29    28    1
    83    60    61    1
    84    36    35    1
    85    36    39    1
    86   140   139   ar
    87   140   142   ar
    88   135   134    1
    89   139   141   ar
    90    78    76   ar
    91    64    61    1
    92    61    62    1
    93    75    74   ar
    94    25    28    1
    95    25    24    1
    96   142   144   ar
    97    42    40    1
    98   155   153   ar
    99   155   156   ar
   100   153   151   ar
   101   141   143   ar
   102    39    40    1
   103   144   143   ar
   104   144   145    1
   105    76    74   ar
   106    40    41    1
   107    74    73    1
   108   156   154   ar
   109    62    63    2
   110   148   149    2
   111   148   147    1
   112   151   150    1
   113   151   152   ar
   114   150   147    1
   115    69    70    1
   116   147   146    1
   117   154   152   ar
   118    73    70    1
   119    70    71    1
   120    16    15    2
   121    23    21   ar
   122    23    22   ar
   123    21    19   ar
   124   157   158    1
   125    22    20   ar
   126   164   163   ar
   127    15    14    1
   128    19    18   ar
   129   161   158    1
   130   161   162    1
   131    71    72    2
   132    71    81   am
   133   133   132    1
   134   163   165   ar
   135   163   162    1
   136   158   159    1
   137    14    13    1
   138    14    17    1
   139    20    18   ar
   140    18    17    1
   141    92    91    1
   142    81    82    1
   143    91    90   ar
   144    91    89   ar
   145    90    88   ar
   146   130   131    2
   147   130   129    1
   148   159   160    2
   149    89    87   ar
   150    12    11    1
   151   132   129    1
   152    88    86   ar
   153   129   128    1
   154    82    83    1
   155    82    85    1
   156    87    86   ar
   157    86    85    1
   158    83    84    2
   159    11     9   ar
   160    11    10   ar
   161     9     7   ar
   162    10     8   ar
   163     4     3    2
   164     7     6   ar
   165     8     6   ar
   166     3     2    1
   167     6     5    1
   168     2     5    1
   169     2     1    1
