@<TRIPOS>MOLECULE
tmp/2ap2B00.pdb
 122 120 0 0 0
SMALL
GASTEIGER

@<TRIPOS>ATOM
      1  N         18.0920   -5.1350   13.2340 N.3    33  PHE33      -0.1241
      2  CA        19.3480   -5.7190   13.6870 C.3    33  PHE33       0.1605
      3  C         19.1610   -5.6910   15.1990 C.2    33  PHE33       0.2264
      4  O         18.8690   -4.6340   15.7560 O.2    33  PHE33      -0.2867
      5  CB        20.5350   -4.8160   13.3310 C.3    33  PHE33       0.0534
      6  CG        21.1080   -5.0470   11.9590 C.ar   33  PHE33      -0.0203
      7  CD1       20.9520   -6.2640   11.3080 C.ar   33  PHE33      -0.0042
      8  CD2       21.8500   -4.0490   11.3370 C.ar   33  PHE33      -0.0042
      9  CE1       21.5310   -6.4790   10.0620 C.ar   33  PHE33      -0.0003
     10  CE2       22.4280   -4.2580   10.0930 C.ar   33  PHE33      -0.0003
     11  CZ        22.2700   -5.4750    9.4560 C.ar   33  PHE33      -0.0000
     12  N         25.6720   -7.6060   17.5240 N.3    50  ARG50      -0.1245
     13  CA        24.3650   -7.4840   16.8970 C.3    50  ARG50       0.1563
     14  C         24.1630   -8.6190   15.8920 C.2    50  ARG50       0.2260
     15  O         25.1270   -9.1730   15.3620 O.2    50  ARG50      -0.2867
     16  CB        24.2500   -6.1220   16.1960 C.3    50  ARG50       0.0307
     17  CG        25.1080   -5.9600   14.9440 C.3    50  ARG50       0.0489
     18  CD        24.2570   -6.1580   13.6940 C.3    50  ARG50       0.2205
     19  NE        24.8600   -7.0870   12.7390 N.pl3  50  ARG50      -0.0865
     20  CZ        25.4600   -6.7330   11.6070 C.cat  50  ARG50       0.5346
     21  NH1       25.5470   -5.4530   11.2620 N.pl3  50  ARG50       0.1354
     22  NH2       25.9810   -7.6700   10.8210 N.pl3  50  ARG50       0.1354
     23  N         21.5780  -10.1870   12.5010 N.3    52  ASP52      -0.1239
     24  CA        20.5890   -9.8820   11.4750 C.3    52  ASP52       0.1674
     25  C         19.6340  -11.0710   11.4130 C.2    52  ASP52       0.2266
     26  O         19.8950  -12.0480   10.7170 O.2    52  ASP52      -0.2867
     27  CB        21.2810   -9.6950   10.1240 C.3    52  ASP52       0.1410
     28  CG        20.3340   -9.2210    9.0380 C.2    52  ASP52       0.3668
     29  OD1       19.1090   -9.4240    9.1820 O.co2  52  ASP52      -0.2456
     30  OD2       20.8210   -8.6590    8.0290 O.co2  52  ASP52      -0.2456
     31  N         19.2000  -13.0560    8.0030 N.3    55  ASN55      -0.1240
     32  CA        20.2570  -13.9320    7.5100 C.3    55  ASN55       0.1653
     33  C         21.1210  -14.4520    8.6530 C.2    55  ASN55       0.2266
     34  O         22.1920  -15.0130    8.4140 O.2    55  ASN55      -0.2867
     35  CB        21.1490  -13.1780    6.5250 C.3    55  ASN55       0.1155
     36  CG        21.6980  -11.8910    7.1150 C.2    55  ASN55       0.2627
     37  OD1       21.9760  -11.8220    8.3090 O.2    55  ASN55      -0.2716
     38  ND2       21.8650  -10.8710    6.2800 N.am   55  ASN55      -0.0877
     39  N         27.6440   -9.8210   14.3240 N.3    59  LYS59      -0.1245
     40  CA        28.8750   -9.0570   14.3950 C.3    59  LYS59       0.1561
     41  C         29.1360   -8.8770   15.8810 C.2    59  LYS59       0.2260
     42  O         28.2420   -8.4600   16.6230 O.2    59  LYS59      -0.2867
     43  CB        28.6890   -7.6970   13.7190 C.3    59  LYS59       0.0271
     44  CG        29.9800   -6.9380   13.4690 C.3    59  LYS59       0.0035
     45  CD        30.8140   -7.6230   12.3960 C.3    59  LYS59       0.0206
     46  CE        32.1020   -6.8620   12.1140 C.3    59  LYS59       0.1093
     47  NZ        33.0380   -7.6520   11.2650 N.3    59  LYS59      -0.1314
     48  N         17.7320   -1.7420   15.5390 N.3    99  ARG99      -0.1231
     49  CA        18.1150   -0.7800   14.5200 C.3    99  ARG99       0.1694
     50  C         17.3880   -1.2000   13.2580 C.2    99  ARG99       0.2592
     51  O         17.6680   -2.2660   12.7140 O.2    99  ARG99      -0.2718
     52  CB        19.6200   -0.8080   14.2600 C.3    99  ARG99       0.0321
     53  CG        20.0490    0.0730   13.0960 C.3    99  ARG99       0.0489
     54  CD        21.5030   -0.1990   12.7160 C.3    99  ARG99       0.2205
     55  NE        22.4520    0.5870   13.5000 N.pl3  99  ARG99      -0.0865
     56  CZ        23.7030    0.2120   13.7650 C.cat  99  ARG99       0.5346
     57  NH1       24.1770   -0.9520   13.3180 N.pl3  99  ARG99       0.1354
     58  NH2       24.4780    1.0060   14.4820 N.pl3  99  ARG99       0.1354
     59  N         16.4490   -0.3730   12.8040 N.am  100  GLU100     -0.1966
     60  CA        15.6950   -0.6700   11.5910 C.3   100  GLU100      0.1733
     61  C         16.6870   -0.7460   10.4440 C.2   100  GLU100      0.2616
     62  O         17.6980   -0.0490   10.4670 O.2   100  GLU100     -0.2715
     63  CB        14.6750    0.4300   11.3200 C.3   100  GLU100      0.0429
     64  CG        13.6700    0.6170   12.4320 C.3   100  GLU100      0.1163
     65  CD        12.7160    1.7540   12.1490 C.2   100  GLU100      0.3649
     66  OE1       13.2160    2.8640   11.8560 O.co2 100  GLU100     -0.2457
     67  OE2       11.4810    1.5390   12.2180 O.co2 100  GLU100     -0.2457
     68  N         16.4110   -1.5950    9.4570 N.am  101  VAL101     -0.1963
     69  CA        17.3140   -1.7380    8.3180 C.3   101  VAL101      0.1727
     70  C         16.6110   -1.4370    7.0010 C.2   101  VAL101      0.2616
     71  O         17.1730   -1.6500    5.9220 O.2   101  VAL101     -0.2715
     72  CB        17.9310   -3.1630    8.2550 C.3   101  VAL101      0.0290
     73  CG1       18.1600   -3.6950    9.6700 C.3   101  VAL101      0.0023
     74  CG2       17.0410   -4.0940    7.4580 C.3   101  VAL101      0.0023
     75  N         15.3830   -0.9340    7.0910 N.am  102  TYR102     -0.1960
     76  CA        14.6140   -0.5970    5.8980 C.3   102  TYR102      0.1771
     77  C         14.8140    0.8510    5.4870 C.2   102  TYR102      0.2620
     78  O         14.7370    1.1860    4.3050 O.2   102  TYR102     -0.2715
     79  CB        13.1290   -0.8910    6.1140 C.3   102  TYR102      0.0574
     80  CG        12.7750   -2.3360    5.8320 C.ar  102  TYR102     -0.0198
     81  CD1       13.0050   -2.8950    4.5720 C.ar  102  TYR102     -0.0009
     82  CD2       12.2230   -3.1510    6.8210 C.ar  102  TYR102     -0.0009
     83  CE1       12.6940   -4.2310    4.3050 C.ar  102  TYR102      0.0417
     84  CE2       11.9090   -4.4900    6.5640 C.ar  102  TYR102      0.0417
     85  CZ        12.1480   -5.0210    5.3050 C.ar  102  TYR102      0.1957
     86  OH        11.8460   -6.3410    5.0450 O.3   102  TYR102     -0.2866
     87  N         15.0700    1.7070    6.4680 N.am  103  SER103     -0.1936
     88  CA        15.3300    3.1150    6.2020 C.3   103  SER103      0.2055
     89  C         16.7370    3.1930    5.6190 C.2   103  SER103      0.2643
     90  O         17.4680    2.2030    5.6320 O.2   103  SER103     -0.2714
     91  CB        15.2760    3.9100    7.5070 C.3   103  SER103      0.2130
     92  OG        15.9090    5.1670    7.3580 O.3   103  SER103     -0.2179
     93  N         17.1220    4.3510    5.0930 N.am  104  TYR104     -0.1959
     94  CA        18.4720    4.4780    4.5580 C.3   104  TYR104      0.1771
     95  C         19.4030    4.2850    5.7450 C.2   104  TYR104      0.2620
     96  O         20.3810    3.5450    5.6760 O.2   104  TYR104     -0.2715
     97  CB        18.7140    5.8630    3.9580 C.3   104  TYR104      0.0574
     98  CG        20.1720    6.0980    3.6290 C.ar  104  TYR104     -0.0198
     99  CD1       20.8340    5.3030    2.6960 C.ar  104  TYR104     -0.0009
    100  CD2       20.9040    7.0710    4.2970 C.ar  104  TYR104     -0.0009
    101  CE1       22.2010    5.4730    2.4410 C.ar  104  TYR104      0.0417
    102  CE2       22.2620    7.2500    4.0520 C.ar  104  TYR104      0.0417
    103  CZ        22.9060    6.4500    3.1300 C.ar  104  TYR104      0.1957
    104  OH        24.2520    6.6290    2.9110 O.3   104  TYR104     -0.2866
    105  N         19.0710    4.9600    6.8390 N.am  105  TYR105     -0.1960
    106  CA        19.8470    4.8750    8.0610 C.3   105  TYR105      0.1771
    107  C         18.9970    5.2170    9.2750 C.2   105  TYR105      0.2620
    108  O         18.0540    6.0000    9.1840 O.2   105  TYR105     -0.2715
    109  CB        21.0280    5.8340    8.0210 C.3   105  TYR105      0.0574
    110  CG        21.6450    6.0290    9.3820 C.ar  105  TYR105     -0.0198
    111  CD1       22.6290    5.1620    9.8620 C.ar  105  TYR105     -0.0009
    112  CD2       21.2100    7.0600   10.2120 C.ar  105  TYR105     -0.0009
    113  CE1       23.1660    5.3260   11.1440 C.ar  105  TYR105      0.0417
    114  CE2       21.7340    7.2310   11.4850 C.ar  105  TYR105      0.0417
    115  CZ        22.7100    6.3640   11.9460 C.ar  105  TYR105      0.1957
    116  OH        23.2310    6.5380   13.2120 O.3   105  TYR105     -0.2866
    117  N         19.3580    4.6380   10.4150 N.am  106  SER106     -0.1950
    118  CA        18.6600    4.8720   11.6690 C.3   106  SER106      0.1924
    119  C         19.5650    4.4320   12.8030 C.2   106  SER106      0.2314
    120  O         20.2500    3.4090   12.6950 O.2   106  SER106     -0.2863
    121  CB        17.3580    4.0710   11.7240 C.3   106  SER106      0.2116
    122  OG        16.8400    4.0350   13.0420 O.3   106  SER106     -0.2180
@<TRIPOS>BOND
     1   101    99   ar
     2   101   103   ar
     3    99    98   ar
     4   104   103    1
     5   103   102   ar
     6    98    97    1
     7    98   100   ar
     8    97    94    1
     9   102   100   ar
    10    83    81   ar
    11    83    85   ar
    12    78    77    2
    13    94    93    1
    14    94    95    1
    15    81    80   ar
    16    86    85    1
    17    93    89   am
    18    85    84   ar
    19    77    76    1
    20    77    87   am
    21    89    90    2
    22    89    88    1
    23    96    95    2
    24    95   105   am
    25    80    79    1
    26    80    82   ar
    27    76    79    1
    28    76    75    1
    29    71    70    2
    30    88    87    1
    31    88    91    1
    32    38    36   am
    33    35    36    1
    34    35    32    1
    35    84    82   ar
    36   105   106    1
    37    70    75   am
    38    70    69    1
    39    36    37    2
    40    92    91    1
    41    74    72    1
    42    32    31    1
    43    32    33    1
    44   109   106    1
    45   109   110    1
    46    30    28   ar
    47   106   107    1
    48    72    69    1
    49    72    73    1
    50    69    68    1
    51    34    33    2
    52    28    29   ar
    53    28    27    1
    54   108   107    2
    55   107   117   am
    56   110   111   ar
    57   110   112   ar
    58    11     9   ar
    59    11    10   ar
    60    68    61   am
    61   111   113   ar
    62     9     7   ar
    63    10     8   ar
    64    27    24    1
    65   112   114   ar
    66   117   118    1
    67    61    62    2
    68    61    60    1
    69    26    25    2
    70    22    20    1
    71   113   115   ar
    72    21    20    1
    73    47    46    1
    74     7     6   ar
    75    63    60    1
    76    63    64    1
    77     8     6   ar
    78    25    24    1
    79    24    23    1
    80   114   115   ar
    81    60    59    1
    82    20    19    2
    83   118   121    1
    84   118   119    1
    85   121   122    1
    86    66    65   ar
    87   115   116    1
    88     6     5    1
    89    46    45    1
    90    65    67   ar
    91    65    64    1
    92    45    44    1
    93   120   119    2
    94    51    50    2
    95    54    53    1
    96    54    55    1
    97    19    18    1
    98    59    50   am
    99    53    52    1
   100     1     2    1
   101    50    49    1
   102    57    56    1
   103     5     2    1
   104    44    43    1
   105    55    56    2
   106     2     3    1
   107    18    17    1
   108    43    40    1
   109    56    58    1
   110    52    49    1
   111    39    40    1
   112    40    41    1
   113    49    48    1
   114    17    16    1
   115     3     4    2
   116    15    14    2
   117    41    42    2
   118    14    13    1
   119    16    13    1
   120    13    12    1
