@<TRIPOS>MOLECULE
tmp/2apcA00.pdb
 231 225 0 0 0
SMALL
GASTEIGER

@<TRIPOS>ATOM
      1  N         -3.7650   12.0740    7.9010 N.3     8  ILE8       -0.1231
      2  CA        -3.6990   13.4820    7.4750 C.3     8  ILE8        0.1692
      3  C         -2.4520   13.6810    6.6040 C.2     8  ILE8        0.2592
      4  O         -1.3240   13.4420    7.0580 O.2     8  ILE8       -0.2718
      5  CB        -3.6170   14.4010    8.7100 C.3     8  ILE8        0.0266
      6  CG1       -4.7810   14.1340    9.6750 C.3     8  ILE8        0.0019
      7  CG2       -3.5500   15.8810    8.2480 C.3     8  ILE8        0.0020
      8  CD1       -6.1620   14.4030    9.0790 C.3     8  ILE8        0.0001
      9  N         -2.6520   14.0830    5.3510 N.am    9  ALA9       -0.1966
     10  CA        -1.5410   14.2710    4.4160 C.3     9  ALA9        0.1728
     11  C         -1.5930   15.6140    3.6950 C.2     9  ALA9        0.2616
     12  O         -2.6160   16.3080    3.7170 O.2     9  ALA9       -0.2715
     13  CB        -1.5300   13.1140    3.3950 C.3     9  ALA9        0.0334
     14  N         -0.4860   15.9610    3.0460 N.am   10  CYS10      -0.1954
     15  CA        -0.4060   17.2230    2.3230 C.3    10  CYS10       0.1843
     16  C          0.5280   17.1380    1.1230 C.2    10  CYS10       0.2625
     17  O          0.0700   16.8710    0.0120 O.2    10  CYS10      -0.2714
     18  CB         0.0130   18.3420    3.2940 C.3    10  CYS10       0.0997
     19  SG         0.5280   19.9670    2.6130 S.3    10  CYS10      -0.0797
     20  N          1.8280   17.3200    1.3440 N.am   11  ASP11      -0.1957
     21  CA         2.7660   17.3450    0.2260 C.3    11  ASP11       0.1840
     22  C          4.0520   16.5590    0.3950 C.2    11  ASP11       0.2621
     23  O          5.0710   16.8760   -0.2290 O.2    11  ASP11      -0.2715
     24  CB         3.0910   18.8100   -0.1310 C.3    11  ASP11       0.1450
     25  CG         3.6440   19.6060    1.0420 C.2    11  ASP11       0.3671
     26  OD1        3.8420   20.8370    0.8670 O.co2  11  ASP11      -0.2456
     27  OD2        3.8990   19.0360    2.1320 O.co2  11  ASP11      -0.2456
     28  N          4.0010   15.5330    1.2400 N.am   12  ARG12      -0.1977
     29  CA         5.1550   14.6590    1.4550 C.3    12  ARG12       0.1597
     30  C          4.8620   13.2660    0.8780 C.2    12  ARG12       0.2287
     31  O          3.9200   12.5790    1.3010 O.2    12  ARG12      -0.2864
     32  CB         5.4910   14.5560    2.9550 C.3    12  ARG12       0.0334
     33  CG         6.0610   15.8600    3.5420 C.3    12  ARG12       0.0492
     34  CD         6.4820   15.7160    5.0040 C.3    12  ARG12       0.2205
     35  NE         5.3300   15.4890    5.8830 N.pl3  12  ARG12      -0.0865
     36  CZ         5.2810   15.8300    7.1710 C.cat  12  ARG12       0.5346
     37  NH1        6.3210   16.4200    7.7670 N.pl3  12  ARG12       0.1354
     38  NH2        4.1780   15.5860    7.8680 N.pl3  12  ARG12       0.1354
     39  N         -4.6310   17.4610    2.0070 N.3    39  ASP39      -0.1225
     40  CA        -4.7610   18.9100    1.8440 C.3    39  ASP39       0.1805
     41  C         -3.7110   19.2730    0.7890 C.2    39  ASP39       0.2598
     42  O         -3.0100   18.3980    0.2550 O.2    39  ASP39      -0.2718
     43  CB        -4.4280   19.5870    3.1870 C.3    39  ASP39       0.1424
     44  CG        -4.7400   21.0810    3.2150 C.2    39  ASP39       0.3668
     45  OD1       -5.4680   21.5760    2.3320 O.co2  39  ASP39      -0.2456
     46  OD2       -4.2620   21.7550    4.1590 O.co2  39  ASP39      -0.2456
     47  N         -3.6480   20.5570    0.4440 N.am   40  CYS40      -0.1970
     48  CA        -2.5920   21.0620   -0.4320 C.3    40  CYS40       0.1712
     49  C         -2.6560   20.8330   -1.9390 C.2    40  CYS40       0.2296
     50  O         -2.4080   21.7600   -2.7000 O.2    40  CYS40      -0.2864
     51  CB        -1.2490   20.5760    0.1580 C.3    40  CYS40       0.0983
     52  SG        -1.1620   20.9080    1.9720 S.3    40  CYS40      -0.0798
     53  N          1.0120   28.1890    7.7430 N.3    78  GLY78      -0.1210
     54  CA         0.9280   26.7320    7.7190 C.3    78  GLY78       0.1956
     55  C          0.1310   26.1550    8.8710 C.2    78  GLY78       0.2611
     56  O         -0.5880   25.1460    8.7090 O.2    78  GLY78      -0.2717
     57  N          0.2570   26.7530   10.0520 N.am   79  TYR79      -0.1976
     58  CA        -0.5010   26.2640   11.2090 C.3    79  TYR79       0.1639
     59  C         -2.0010   26.5420   11.0640 C.2    79  TYR79       0.2290
     60  O         -2.8340   25.7890   11.5790 O.2    79  TYR79      -0.2864
     61  CB         0.0570   26.8590   12.5070 C.3    79  TYR79       0.0560
     62  CG         1.4710   26.3830   12.7910 C.ar   79  TYR79      -0.0198
     63  CD1        2.5780   27.1630   12.4520 C.ar   79  TYR79      -0.0009
     64  CD2        1.6970   25.1220   13.3560 C.ar   79  TYR79      -0.0009
     65  CE1        3.8870   26.6950   12.6640 C.ar   79  TYR79       0.0417
     66  CE2        2.9930   24.6500   13.5740 C.ar   79  TYR79       0.0417
     67  CZ         4.0770   25.4410   13.2240 C.ar   79  TYR79       0.1957
     68  OH         5.3590   24.9710   13.4280 O.3    79  TYR79      -0.2866
     69  N         -3.4740   26.4600    8.1520 N.3    81  LYS81      -0.1231
     70  CA        -3.9050   25.4420    7.1870 C.3    81  LYS81       0.1693
     71  C         -4.0780   24.0790    7.8720 C.2    81  LYS81       0.2591
     72  O         -5.0330   23.3590    7.5650 O.2    81  LYS81      -0.2718
     73  CB        -2.9100   25.3460    6.0310 C.3    81  LYS81       0.0285
     74  CG        -3.0340   26.5650    5.0930 C.3    81  LYS81       0.0035
     75  CD        -2.1560   26.4830    3.8580 C.3    81  LYS81       0.0206
     76  CE        -2.4700   27.6720    2.9400 C.3    81  LYS81       0.1093
     77  NZ        -1.6990   27.6630    1.6680 N.3    81  LYS81      -0.1314
     78  N         -3.1870   23.7440    8.8110 N.am   82  ILE82      -0.1980
     79  CA        -3.3220   22.4770    9.5330 C.3    82  ILE82       0.1595
     80  C         -4.6740   22.4760   10.2820 C.2    82  ILE82       0.2287
     81  O         -5.4320   21.5070   10.1930 O.2    82  ILE82      -0.2864
     82  CB        -2.1480   22.2690   10.5430 C.3    82  ILE82       0.0276
     83  CG1       -0.8290   22.0390    9.7880 C.3    82  ILE82       0.0022
     84  CG2       -2.4600   21.0860   11.4750 C.3    82  ILE82       0.0022
     85  CD1        0.3980   22.0430   10.6890 C.3    82  ILE82       0.0001
     86  N         -7.6220   22.0240    7.8930 N.3    85  HIS85      -0.1226
     87  CA        -7.7080   20.6580    7.3830 C.3    85  HIS85       0.1752
     88  C         -8.2670   19.7140    8.4400 C.2    85  HIS85       0.2596
     89  O         -9.1290   18.8960    8.1380 O.2    85  HIS85      -0.2718
     90  CB        -6.3430   20.1670    6.9080 C.3    85  HIS85       0.0759
     91  CG        -6.4010   18.8380    6.2140 C.ar   85  HIS85       0.0818
     92  ND1       -5.2830   18.0620    6.0160 N.ar   85  HIS85      -0.2268
     93  CD2       -7.4350   18.1610    5.6530 C.ar   85  HIS85       0.1154
     94  CE1       -5.6220   16.9600    5.3640 C.ar   85  HIS85       0.1986
     95  NE2       -6.9210   16.9960    5.1280 N.ar   85  HIS85      -0.2212
     96  N         -7.7770   19.8060    9.6750 N.am   86  TYR86      -0.1976
     97  CA        -8.3060   18.9610   10.7460 C.3    86  TYR86       0.1639
     98  C         -9.8170   19.1360   10.8920 C.2    86  TYR86       0.2290
     99  O        -10.5470   18.1470   11.0210 O.2    86  TYR86      -0.2864
    100  CB        -7.6350   19.2830   12.0870 C.3    86  TYR86       0.0560
    101  CG        -6.4620   18.3980   12.4260 C.ar   86  TYR86      -0.0198
    102  CD1       -5.2560   18.4920   11.7220 C.ar   86  TYR86      -0.0009
    103  CD2       -6.5720   17.4350   13.4350 C.ar   86  TYR86      -0.0009
    104  CE1       -4.1850   17.6340   12.0140 C.ar   86  TYR86       0.0417
    105  CE2       -5.5040   16.5800   13.7390 C.ar   86  TYR86       0.0417
    106  CZ        -4.3270   16.6850   13.0190 C.ar   86  TYR86       0.1957
    107  OH        -3.2890   15.8100   13.2760 O.3    86  TYR86      -0.2866
    108  N         -0.9610   11.2920   11.5940 N.3   106  GLU106     -0.1231
    109  CA        -0.3300   12.1790   10.6110 C.3   106  GLU106      0.1699
    110  C          0.5720   11.3770    9.6580 C.2   106  GLU106      0.2592
    111  O          1.0910   10.3020   10.0110 O.2   106  GLU106     -0.2718
    112  CB         0.4100   13.3160   11.3430 C.3   106  GLU106      0.0402
    113  CG        -0.6510   14.2880   11.9160 C.3   106  GLU106      0.1161
    114  CD        -0.1060   15.4570   12.7000 C.2   106  GLU106      0.3649
    115  OE1       -0.8590   16.4530   12.8390 O.co2 106  GLU106     -0.2457
    116  OE2        1.0420   15.3990   13.1950 O.co2 106  GLU106     -0.2457
    117  N          0.7390   11.8960    8.4450 N.am  107  ASP107     -0.1960
    118  CA         1.4880   11.2240    7.3800 C.3   107  ASP107      0.1840
    119  C          2.9350   10.8830    7.6490 C.2   107  ASP107      0.2622
    120  O          3.5220   10.0790    6.9100 O.2   107  ASP107     -0.2715
    121  CB         1.3920   12.0530    6.0830 C.3   107  ASP107      0.1450
    122  CG         2.1550   13.3620    6.1630 C.2   107  ASP107      0.3671
    123  OD1        1.9110   14.1340    7.1180 O.co2 107  ASP107     -0.2456
    124  OD2        2.9990   13.6060    5.2610 O.co2 107  ASP107     -0.2456
    125  N          3.5220   11.5140    8.6680 N.am  108  ASP108     -0.1971
    126  CA         4.9100   11.2580    9.0250 C.3   108  ASP108      0.1709
    127  C          5.0690   10.4100   10.2800 C.2   108  ASP108      0.2293
    128  O          6.0840   10.4950   10.9680 O.2   108  ASP108     -0.2864
    129  CB         5.6900   12.5770    9.1660 C.3   108  ASP108      0.1436
    130  CG         5.1440   13.4750   10.2520 C.2   108  ASP108      0.3671
    131  OD1        4.1350   13.1070   10.9000 O.co2 108  ASP108     -0.2456
    132  OD2        5.7460   14.5570   10.4740 O.co2 108  ASP108     -0.2456
    133  N         -0.4440   12.7420   18.2630 N.3   164  LEU164     -0.1245
    134  CA         0.4920   11.8520   17.5520 C.3   164  LEU164      0.1561
    135  C          0.0930   10.3720   17.5730 C.2   164  LEU164      0.2260
    136  O          0.8080    9.5110   18.0910 O.2   164  LEU164     -0.2867
    137  CB         1.9200   12.0870   18.1180 C.3   164  LEU164      0.0270
    138  CG         2.4170   13.5440   17.9440 C.3   164  LEU164      0.0019
    139  CD1        3.7110   13.7630   18.7220 C.3   164  LEU164      0.0001
    140  CD2        2.6330   13.8350   16.4540 C.3   164  LEU164      0.0001
    141  N         -2.9250   26.3110   15.8380 N.3   184  PHE184     -0.1227
    142  CA        -2.3060   25.6550   17.0020 C.3   184  PHE184      0.1736
    143  C         -3.3100   24.8260   17.7840 C.2   184  PHE184      0.2595
    144  O         -3.4250   24.9430   19.0140 O.2   184  PHE184     -0.2718
    145  CB        -1.6480   26.6990   17.9320 C.3   184  PHE184      0.0547
    146  CG        -0.8310   27.7470   17.2020 C.ar  184  PHE184     -0.0202
    147  CD1       -1.1340   29.0900   17.3300 C.ar  184  PHE184     -0.0042
    148  CD2        0.2140   27.3740   16.3680 C.ar  184  PHE184     -0.0042
    149  CE1       -0.4060   30.0450   16.6260 C.ar  184  PHE184     -0.0003
    150  CE2        0.9480   28.3130   15.6630 C.ar  184  PHE184     -0.0003
    151  CZ         0.6310   29.6580   15.7940 C.ar  184  PHE184     -0.0000
    152  N         -3.9920   23.9320   17.0700 N.am  185  TRP185     -0.1962
    153  CA        -5.0420   23.1360   17.6880 C.3   185  TRP185      0.1771
    154  C         -4.5810   22.2330   18.8200 C.2   185  TRP185      0.2619
    155  O         -5.3480   21.9670   19.7440 O.2   185  TRP185     -0.2715
    156  CB        -5.8200   22.3210   16.6270 C.3   185  TRP185      0.0590
    157  CG        -5.0400   21.1580   16.0650 C.ar  185  TRP185      0.0006
    158  CD1       -4.2280   21.1650   14.9670 C.ar  185  TRP185      0.0946
    159  CD2       -4.8950   19.8640   16.6700 C.ar  185  TRP185      0.0152
    160  NE1       -3.5650   19.9540   14.8580 N.ar  185  TRP185     -0.2442
    161  CE2       -3.9550   19.1460   15.8930 C.ar  185  TRP185      0.0810
    162  CE3       -5.4590   19.2460   17.8030 C.ar  185  TRP185      0.0012
    163  CZ2       -3.5530   17.8390   16.2130 C.ar  185  TRP185      0.0191
    164  CZ3       -5.0560   17.9470   18.1260 C.ar  185  TRP185      0.0001
    165  CH2       -4.1080   17.2630   17.3280 C.ar  185  TRP185      0.0015
    166  N         -3.3330   21.7690   18.7650 N.am  186  ASP186     -0.1971
    167  CA        -2.8210   20.9040   19.8240 C.3   186  ASP186      0.1709
    168  C         -2.6570   21.6450   21.1560 C.2   186  ASP186      0.2293
    169  O         -3.1100   21.1650   22.2030 O.2   186  ASP186     -0.2864
    170  CB        -1.5020   20.2140   19.4000 C.3   186  ASP186      0.1436
    171  CG        -0.4460   21.1750   18.8710 C.2   186  ASP186      0.3671
    172  OD1       -0.7050   22.3880   18.6970 O.co2 186  ASP186     -0.2456
    173  OD2        0.6760   20.6940   18.6120 O.co2 186  ASP186     -0.2456
    174  N         -4.8000   21.5050   24.8830 N.3   190  ARG190     -0.1245
    175  CA        -4.1360   21.4470   26.1730 C.3   190  ARG190      0.1563
    176  C         -4.5910   22.4960   27.1880 C.2   190  ARG190      0.2260
    177  O         -4.2590   22.4100   28.3810 O.2   190  ARG190     -0.2867
    178  CB        -2.6180   21.4890   25.9420 C.3   190  ARG190      0.0307
    179  CG        -2.1130   20.2230   25.2450 C.3   190  ARG190      0.0489
    180  CD        -0.7250   20.4080   24.6480 C.3   190  ARG190      0.2205
    181  NE        -0.2670   19.1600   24.0190 N.pl3 190  ARG190     -0.0865
    182  CZ         0.6160   19.0940   23.0290 C.cat 190  ARG190      0.5346
    183  NH1        1.1500   20.2030   22.5210 N.pl3 190  ARG190      0.1354
    184  NH2        0.9860   17.8940   22.5600 N.pl3 190  ARG190      0.1354
    185  N          7.6380    9.5310   14.9120 N.3   210  THR210     -0.1218
    186  CA         7.6260   10.4200   13.7490 C.3   210  THR210      0.1862
    187  C          8.9680   10.4750   13.0400 C.2   210  THR210      0.2287
    188  O         10.0350   10.4540   13.6750 O.2   210  THR210     -0.2866
    189  CB         7.1640   11.8670   14.1280 C.3   210  THR210      0.1770
    190  OG1        6.9960   12.6380   12.9220 O.3   210  THR210     -0.2211
    191  CG2        8.2030   12.5620   15.0420 C.3   210  THR210      0.0375
    192  N          9.1370   12.7790   10.3640 N.3   212  GLY212     -0.1225
    193  CA         8.9940   14.0400    9.6350 C.3   212  GLY212      0.1811
    194  C          9.9300   15.1730   10.0210 C.2   212  GLY212      0.2280
    195  O          9.4950   16.2010   10.5490 O.2   212  GLY212     -0.2866
    196  N          8.9580   19.5340    7.6540 N.3   215  GLY215     -0.1210
    197  CA         7.5150   19.7070    7.6560 C.3   215  GLY215      0.1956
    198  C          7.1940   21.1820    7.7600 C.2   215  GLY215      0.2612
    199  O          7.9540   22.0250    7.2840 O.2   215  GLY215     -0.2717
    200  N          6.0730   21.4990    8.3940 N.am  216  VAL216     -0.1965
    201  CA         5.6610   22.8830    8.5480 C.3   216  VAL216      0.1727
    202  C          6.5930   23.6810    9.4390 C.2   216  VAL216      0.2616
    203  O          6.7940   24.8820    9.2200 O.2   216  VAL216     -0.2715
    204  CB         4.2410   22.9510    9.1350 C.3   216  VAL216      0.0290
    205  CG1        3.8930   24.3860    9.5510 C.3   216  VAL216      0.0023
    206  CG2        3.2500   22.4360    8.1060 C.3   216  VAL216      0.0023
    207  N          7.1720   23.0170   10.4330 N.am  217  SER217     -0.1950
    208  CA         8.0430   23.6930   11.3800 C.3   217  SER217      0.1924
    209  C          9.5050   23.6270   11.0280 C.2   217  SER217      0.2314
    210  O          9.9000   23.0910    9.9990 O.2   217  SER217     -0.2863
    211  CB         7.8620   23.1020   12.7760 C.3   217  SER217      0.2116
    212  OG         8.7400   23.7130   13.7120 O.3   217  SER217     -0.2180
    213  N         12.7070   21.0880   17.2030 N.3   221  PHE221     -0.1241
    214  CA        12.0990   20.1320   18.1340 C.3   221  PHE221      0.1605
    215  C         12.3460   18.6810   17.6920 C.2   221  PHE221      0.2264
    216  O         12.5860   17.8060   18.5290 O.2   221  PHE221     -0.2867
    217  CB        10.5960   20.4300   18.2430 C.3   221  PHE221      0.0534
    218  CG         9.8830   19.7050   19.3600 C.ar  221  PHE221     -0.0203
    219  CD1       10.4890   19.4950   20.5990 C.ar  221  PHE221     -0.0042
    220  CD2        8.5780   19.2600   19.1740 C.ar  221  PHE221     -0.0042
    221  CE1        9.7970   18.8520   21.6390 C.ar  221  PHE221     -0.0003
    222  CE2        7.8820   18.6220   20.2000 C.ar  221  PHE221     -0.0003
    223  CZ         8.4860   18.4170   21.4300 C.ar  221  PHE221     -0.0000
    224  N         12.1230   14.7900   19.2840 N.3   226  LEU226     -0.1245
    225  CA        11.2830   13.7970   18.6230 C.3   226  LEU226      0.1561
    226  C         11.9820   12.6120   17.9920 C.2   226  LEU226      0.2260
    227  O         11.4800   11.4830   18.0780 O.2   226  LEU226     -0.2867
    228  CB        10.3850   14.4730   17.5780 C.3   226  LEU226      0.0270
    229  CG         9.5470   15.6610   18.0570 C.3   226  LEU226      0.0019
    230  CD1        8.9840   16.3810   16.8480 C.3   226  LEU226      0.0001
    231  CD2        8.4230   15.1980   18.9890 C.3   226  LEU226      0.0001
@<TRIPOS>BOND
     1    50    49    2
     2    49    48    1
     3    48    51    1
     4    48    47    1
     5    23    22    2
     6    24    21    1
     7    24    25    1
     8    17    16    2
     9    51    52    1
    10    21    22    1
    11    21    20    1
    12    42    41    2
    13    22    28   am
    14    47    41   am
    15    41    40    1
    16    26    25   ar
    17    30    31    2
    18    30    29    1
    19    25    27   ar
    20    16    20   am
    21    16    15    1
    22    28    29    1
    23    29    32    1
    24    77    76    1
    25    40    39    1
    26    40    43    1
    27    52    19    1
    28    15    14    1
    29    15    18    1
    30    45    44   ar
    31    19    18    1
    32    76    75    1
    33    32    33    1
    34    14    11   am
    35    43    44    1
    36    44    46   ar
    37    13    10    1
    38    33    34    1
    39    11    12    2
    40    11    10    1
    41    75    74    1
    42    10     9    1
    43    34    35    1
    44    74    73    1
    45    95    94   ar
    46    95    93   ar
    47   124   122   ar
    48     9     3   am
    49    94    92   ar
    50    93    91   ar
    51    35    36    2
    52    92    91   ar
    53    73    70    1
    54   121   122    1
    55   121   118    1
    56   122   123   ar
    57    91    90    1
    58     3     4    2
    59     3     2    1
    60    90    87    1
    61   120   119    2
    62    36    37    1
    63    36    38    1
    64    70    71    1
    65    70    69    1
    66   199   198    2
    67   118   119    1
    68   118   117    1
    69    87    86    1
    70    87    88    1
    71     2     1    1
    72     2     5    1
    73    72    71    2
    74   119   125   am
    75   196   197    1
    76   197   198    1
    77    54    53    1
    78    54    55    1
    79   198   200   am
    80    71    78   am
    81   206   204    1
    82    89    88    2
    83     7     5    1
    84   200   201    1
    85    88    96   am
    86   117   110   am
    87   201   204    1
    88   201   202    1
    89   125   126    1
    90    56    55    2
    91     5     6    1
    92    78    79    1
    93    55    57   am
    94   126   129    1
    95   126   127    1
    96     8     6    1
    97   204   205    1
    98   129   130    1
    99   203   202    2
   100   202   207   am
   101    79    80    1
   102    79    82    1
   103   193   194    1
   104   193   192    1
   105   110   111    2
   106   110   109    1
   107    96    97    1
   108    83    82    1
   109    83    85    1
   110   210   209    2
   111   194   195    2
   112    57    58    1
   113    81    80    2
   114   130   132   ar
   115   130   131   ar
   116   127   128    2
   117   207   208    1
   118    82    84    1
   119   109   112    1
   120   109   108    1
   121    97    98    1
   122    97   100    1
   123    98    99    2
   124   209   208    1
   125    59    58    1
   126    59    60    2
   127    58    61    1
   128   112   113    1
   129   208   211    1
   130   102   104   ar
   131   102   101   ar
   132   113   114    1
   133   104   106   ar
   134   100   101    1
   135   101   103   ar
   136    63    65   ar
   137    63    62   ar
   138    61    62    1
   139    65    67   ar
   140   114   115   ar
   141   114   116   ar
   142   211   212    1
   143    62    64   ar
   144   190   189    1
   145   106   107    1
   146   106   105   ar
   147   187   188    2
   148   187   186    1
   149    67    68    1
   150    67    66   ar
   151    64    66   ar
   152   103   105   ar
   153   186   189    1
   154   186   185    1
   155   189   191    1
   156   160   158   ar
   157   160   161   ar
   158   158   157   ar
   159   150   151   ar
   160   150   148   ar
   161   151   149   ar
   162   141   142    1
   163   161   163   ar
   164   161   159   ar
   165   157   156    1
   166   157   159   ar
   167   163   165   ar
   168   148   146   ar
   169   140   138    1
   170   149   147   ar
   171   156   153    1
   172   159   162   ar
   173   230   229    1
   174   142   143    1
   175   142   145    1
   176   152   153    1
   177   152   143   am
   178   146   147   ar
   179   146   145    1
   180   213   214    1
   181   165   164   ar
   182   134   135    1
   183   134   137    1
   184   134   133    1
   185   135   136    2
   186   228   229    1
   187   228   225    1
   188   153   154    1
   189   215   214    1
   190   215   216    2
   191   143   144    2
   192   162   164   ar
   193   138   137    1
   194   138   139    1
   195   226   227    2
   196   226   225    1
   197   229   231    1
   198   214   217    1
   199   217   218    1
   200   173   171   ar
   201   225   224    1
   202   172   171   ar
   203   166   154   am
   204   166   167    1
   205   154   155    2
   206   171   170    1
   207   220   218   ar
   208   220   222   ar
   209   218   219   ar
   210   170   167    1
   211   167   168    1
   212   222   223   ar
   213   219   221   ar
   214   168   169    2
   215   223   221   ar
   216   183   182    1
   217   184   182    1
   218   182   181    2
   219   181   180    1
   220   180   179    1
   221   174   175    1
   222   179   178    1
   223   178   175    1
   224   175   176    1
   225   176   177    2
