@<TRIPOS>MOLECULE
tmp/2aphB00.pdb
 218 217 0 0 0
SMALL
GASTEIGER

@<TRIPOS>ATOM
      1  N         26.7580   30.5320   60.5760 N.3    31  ILE31      -0.1231
      2  CA        27.9820   30.8810   61.3000 C.3    31  ILE31       0.1692
      3  C         28.7370   29.6070   61.7030 C.2    31  ILE31       0.2592
      4  O         28.2150   28.5000   61.5580 O.2    31  ILE31      -0.2718
      5  CB        27.5530   31.5920   62.6110 C.3    31  ILE31       0.0266
      6  CG1       26.7400   32.8370   62.2730 C.3    31  ILE31       0.0019
      7  CG2       28.7350   31.8770   63.4920 C.3    31  ILE31       0.0020
      8  CD1       25.8640   33.3330   63.4060 C.3    31  ILE31       0.0001
      9  N         29.9740   29.7670   62.1780 N.am   32  HIS32      -0.1962
     10  CA        30.7310   28.6450   62.7320 C.3    32  HIS32       0.1787
     11  C         31.3360   29.1980   64.0180 C.2    32  HIS32       0.2621
     12  O         31.5650   30.4030   64.1180 O.2    32  HIS32      -0.2715
     13  CB        31.8060   28.1010   61.7780 C.3    32  HIS32       0.0785
     14  CG        33.0370   28.9470   61.6580 C.ar   32  HIS32       0.0821
     15  ND1       34.2540   28.4140   61.2970 N.ar   32  HIS32      -0.2267
     16  CD2       33.2220   30.2850   61.7360 C.ar   32  HIS32       0.1154
     17  CE1       35.1350   29.3870   61.1510 C.ar   32  HIS32       0.1986
     18  NE2       34.5340   30.5340   61.4100 N.ar   32  HIS32      -0.2212
     19  N         31.5590   28.3500   65.0170 N.am   33  THR33      -0.1937
     20  CA        32.1100   28.8370   66.2790 C.3    33  THR33       0.2028
     21  C         33.6100   29.1400   66.2120 C.2    33  THR33       0.2642
     22  O         34.1370   29.8470   67.0570 O.2    33  THR33      -0.2714
     23  CB        31.8460   27.8440   67.4270 C.3    33  THR33       0.1808
     24  OG1       32.5340   26.6100   67.1750 O.3    33  THR33      -0.2208
     25  CG2       30.3490   27.5710   67.5490 C.3    33  THR33       0.0379
     26  N         34.2810   28.5980   65.2020 N.am   34  ALA34      -0.1963
     27  CA        35.7140   28.8130   65.0020 C.3    34  ALA34       0.1728
     28  C         36.5700   28.1850   66.0990 C.2    34  ALA34       0.2616
     29  O         37.7710   28.4540   66.2020 O.2    34  ALA34      -0.2715
     30  CB        36.0140   30.3160   64.9030 C.3    34  ALA34       0.0334
     31  N         35.9580   27.3510   66.9270 N.am   35  GLY35      -0.1955
     32  CA        36.7190   26.7180   67.9880 C.3    35  GLY35       0.1869
     33  C         36.7890   25.2280   67.7520 C.2    35  GLY35       0.2309
     34  O         36.7260   24.7700   66.6130 O.2    35  GLY35      -0.2863
     35  N         30.8450   28.8860   75.5740 N.3    51  ILE51      -0.1245
     36  CA        30.6250   30.0070   74.6600 C.3    51  ILE51       0.1561
     37  C         29.6710   31.0140   75.3050 C.2    51  ILE51       0.2260
     38  O         29.8900   32.2270   75.2040 O.2    51  ILE51      -0.2867
     39  CB        30.0450   29.5600   73.2930 C.3    51  ILE51       0.0252
     40  CG1       31.0650   28.7020   72.5410 C.3    51  ILE51       0.0019
     41  CG2       29.7050   30.7890   72.4580 C.3    51  ILE51       0.0019
     42  CD1       30.5860   28.2140   71.1770 C.3    51  ILE51       0.0001
     43  N         31.7460   32.9700   77.5240 N.3    54  PHE54      -0.1227
     44  CA        32.6920   33.7830   76.7730 C.3    54  PHE54       0.1736
     45  C         31.9260   35.0040   76.2570 C.2    54  PHE54       0.2595
     46  O         32.3410   36.1520   76.4420 O.2    54  PHE54      -0.2718
     47  CB        33.2580   32.9830   75.5950 C.3    54  PHE54       0.0547
     48  CG        34.1290   33.7900   74.6830 C.ar   54  PHE54      -0.0202
     49  CD1       35.3590   34.2790   75.1240 C.ar   54  PHE54      -0.0042
     50  CD2       33.7110   34.0970   73.3920 C.ar   54  PHE54      -0.0042
     51  CE1       36.1590   35.0640   74.2930 C.ar   54  PHE54      -0.0003
     52  CE2       34.5030   34.8840   72.5490 C.ar   54  PHE54      -0.0003
     53  CZ        35.7290   35.3690   73.0010 C.ar   54  PHE54      -0.0000
     54  N         30.7920   34.7550   75.6170 N.am   55  HIS55      -0.1975
     55  CA        29.9950   35.8630   75.1020 C.3    55  HIS55       0.1656
     56  C         29.5490   36.8220   76.1860 C.2    55  HIS55       0.2291
     57  O         29.6290   38.0270   76.0030 O.2    55  HIS55      -0.2864
     58  CB        28.7720   35.3440   74.3450 C.3    55  HIS55       0.0771
     59  CG        29.0910   34.8260   72.9760 C.ar   55  HIS55       0.0820
     60  ND1       28.1580   34.1950   72.1780 N.ar   55  HIS55      -0.2267
     61  CD2       30.2490   34.8330   72.2720 C.ar   55  HIS55       0.1154
     62  CE1       28.7330   33.8340   71.0440 C.ar   55  HIS55       0.1986
     63  NE2       30.0010   34.2090   71.0770 N.ar   55  HIS55      -0.2212
     64  N         32.6190   39.2240   75.9900 N.3    59  ARG59      -0.1231
     65  CA        32.0570   40.0680   74.9270 C.3    59  ARG59       0.1694
     66  C         30.9390   40.9600   75.4800 C.2    59  ARG59       0.2592
     67  O         30.4530   41.8510   74.7850 O.2    59  ARG59      -0.2718
     68  CB        31.4850   39.2340   73.7630 C.3    59  ARG59       0.0321
     69  CG        32.4730   38.3860   72.9310 C.3    59  ARG59       0.0489
     70  CD        33.5290   39.1990   72.1710 C.3    59  ARG59       0.2205
     71  NE        33.0020   40.3270   71.3900 N.pl3  59  ARG59      -0.0865
     72  CZ        32.5770   40.2860   70.1270 C.cat  59  ARG59       0.5346
     73  NH1       32.1350   41.3960   69.5590 N.pl3  59  ARG59       0.1354
     74  NH2       32.5870   39.1600   69.4270 N.pl3  59  ARG59       0.1354
     75  N         30.5310   40.7060   76.7230 N.am   60  ASN60      -0.1960
     76  CA        29.4660   41.4730   77.3780 C.3    60  ASN60       0.1819
     77  C         28.0910   41.3800   76.7100 C.2    60  ASN60       0.2621
     78  O         27.3200   42.3480   76.7060 O.2    60  ASN60      -0.2715
     79  CB        29.8530   42.9480   77.4870 C.3    60  ASN60       0.1195
     80  CG        31.1180   43.1630   78.2820 C.2    60  ASN60       0.2630
     81  OD1       31.3790   42.4560   79.2570 O.2    60  ASN60      -0.2716
     82  ND2       31.9060   44.1490   77.8800 N.am   60  ASN60      -0.0877
     83  N         27.7950   40.2180   76.1350 N.am   61  PHE61      -0.1960
     84  CA        26.5060   39.9710   75.4900 C.3    61  PHE61       0.1771
     85  C         25.5300   39.6940   76.6250 C.2    61  PHE61       0.2619
     86  O         25.9500   39.4520   77.7550 O.2    61  PHE61      -0.2715
     87  CB        26.5790   38.7320   74.5690 C.3    61  PHE61       0.0574
     88  CG        27.4120   38.9280   73.3130 C.ar   61  PHE61      -0.0200
     89  CD1       27.6330   37.8660   72.4360 C.ar   61  PHE61      -0.0042
     90  CD2       27.9810   40.1660   73.0130 C.ar   61  PHE61      -0.0042
     91  CE1       28.4150   38.0330   71.2740 C.ar   61  PHE61      -0.0003
     92  CE2       28.7590   40.3490   71.8620 C.ar   61  PHE61      -0.0003
     93  CZ        28.9790   39.2770   70.9880 C.ar   61  PHE61      -0.0000
     94  N         24.2350   39.7270   76.3290 N.am   62  CYS62      -0.1968
     95  CA        23.2200   39.4480   77.3410 C.3    62  CYS62       0.1712
     96  C         23.1890   37.9470   77.6000 C.2    62  CYS62       0.2296
     97  O         22.8700   37.4980   78.6950 O.2    62  CYS62      -0.2864
     98  CB        21.8330   39.8830   76.8610 C.3    62  CYS62       0.0983
     99  SG        20.5440   39.5870   78.1170 S.3    62  CYS62      -0.0798
    100  N         23.9940   33.0860   69.6530 N.3    66  TYR66      -0.1241
    101  CA        23.2560   32.2870   68.6910 C.3    66  TYR66       0.1605
    102  C         21.8440   31.8390   69.1150 C.2    66  TYR66       0.2264
    103  O         21.5440   31.7130   70.3010 O.2    66  TYR66      -0.2867
    104  CB        24.0970   31.0570   68.3640 C.3    66  TYR66       0.0534
    105  CG        25.5690   31.3630   68.1450 C.ar   66  TYR66      -0.0201
    106  CD1       26.5640   30.5610   68.7220 C.ar   66  TYR66      -0.0009
    107  CD2       25.9700   32.4240   67.3250 C.ar   66  TYR66      -0.0009
    108  CE1       27.9200   30.8060   68.4820 C.ar   66  TYR66       0.0417
    109  CE2       27.3250   32.6790   67.0750 C.ar   66  TYR66       0.0417
    110  CZ        28.2960   31.8650   67.6540 C.ar   66  TYR66       0.1957
    111  OH        29.6320   32.0880   67.3870 O.3    66  TYR66      -0.2866
    112  N         16.2230   37.7050   71.3400 N.3    85  GLN85      -0.1231
    113  CA        17.0630   38.4380   70.4070 C.3    85  GLN85       0.1698
    114  C         18.4940   37.8880   70.3680 C.2    85  GLN85       0.2593
    115  O         19.0370   37.4430   71.3760 O.2    85  GLN85      -0.2718
    116  CB        17.0760   39.9100   70.8110 C.3    85  GLN85       0.0381
    117  CG        17.6260   40.8660   69.7820 C.3    85  GLN85       0.0905
    118  CD        16.5650   41.8560   69.3110 C.2    85  GLN85       0.2608
    119  OE1       16.8880   42.9270   68.7910 O.2    85  GLN85      -0.2717
    120  NE2       15.2880   41.4960   69.4850 N.am   85  GLN85      -0.0878
    121  N         19.1080   37.9320   69.1940 N.am   86  GLY86      -0.1942
    122  CA        20.4600   37.4380   69.0600 C.3    86  GLY86       0.2014
    123  C         21.5230   38.4890   69.2750 C.2    86  GLY86       0.2640
    124  O         21.2390   39.6750   69.4610 O.2    86  GLY86      -0.2714
    125  N         22.7670   38.0280   69.2590 N.am   87  SER87      -0.1935
    126  CA        23.9380   38.8810   69.4340 C.3    87  SER87       0.2055
    127  C         24.9880   38.1970   68.5840 C.2    87  SER87       0.2643
    128  O         26.1020   37.9440   69.0360 O.2    87  SER87      -0.2714
    129  CB        24.4050   38.8900   70.8940 C.3    87  SER87       0.2130
    130  OG        23.5590   39.6490   71.7360 O.3    87  SER87      -0.2179
    131  N         24.6140   37.8690   67.3530 N.am   88  HIS88      -0.1959
    132  CA        25.5260   37.1700   66.4620 C.3    88  HIS88       0.1787
    133  C         25.9890   38.0020   65.2940 C.2    88  HIS88       0.2621
    134  O         27.1170   37.8190   64.8210 O.2    88  HIS88      -0.2715
    135  CB        24.8760   35.8750   65.9560 C.3    88  HIS88       0.0785
    136  CG        23.5190   36.0730   65.3500 C.ar   88  HIS88       0.0821
    137  ND1       23.3350   36.4800   64.0450 N.ar   88  HIS88      -0.2267
    138  CD2       22.2790   35.9270   65.8780 C.ar   88  HIS88       0.1154
    139  CE1       22.0410   36.5730   63.7940 C.ar   88  HIS88       0.1986
    140  NE2       21.3790   36.2430   64.8890 N.ar   88  HIS88      -0.2212
    141  N         25.1260   38.9090   64.8240 N.am   89  THR89      -0.1937
    142  CA        25.4630   39.7560   63.6820 C.3    89  THR89       0.2028
    143  C         24.9200   41.1830   63.7970 C.2    89  THR89       0.2642
    144  O         23.7060   41.4020   63.9110 O.2    89  THR89      -0.2714
    145  CB        24.9340   39.1650   62.3520 C.3    89  THR89       0.1808
    146  OG1       25.2520   37.7650   62.2650 O.3    89  THR89      -0.2208
    147  CG2       25.5670   39.9170   61.1610 C.3    89  THR89       0.0379
    148  N         25.8330   42.1460   63.7480 N.am   90  TYR90      -0.1959
    149  CA        25.4880   43.5620   63.8380 C.3    90  TYR90       0.1771
    150  C         24.4030   43.9590   62.8500 C.2    90  TYR90       0.2620
    151  O         24.5480   43.7530   61.6470 O.2    90  TYR90      -0.2715
    152  CB        26.7340   44.4200   63.5870 C.3    90  TYR90       0.0574
    153  CG        27.7440   44.3710   64.7090 C.ar   90  TYR90      -0.0198
    154  CD1       29.0840   44.0780   64.4580 C.ar   90  TYR90      -0.0009
    155  CD2       27.3620   44.6110   66.0270 C.ar   90  TYR90      -0.0009
    156  CE1       30.0200   44.0200   65.4980 C.ar   90  TYR90       0.0417
    157  CE2       28.2920   44.5550   67.0720 C.ar   90  TYR90       0.0417
    158  CZ        29.6160   44.2580   66.7980 C.ar   90  TYR90       0.1957
    159  OH        30.5310   44.1810   67.8330 O.3    90  TYR90      -0.2866
    160  N         23.3070   44.5090   63.3680 N.am   91  GLY91      -0.1954
    161  CA        22.2150   44.9520   62.5190 C.3    91  GLY91       0.1869
    162  C         21.2010   43.9140   62.0630 C.2    91  GLY91       0.2309
    163  O         20.2320   44.2650   61.3910 O.2    91  GLY91      -0.2863
    164  N         20.3220   41.1500   64.3690 N.3    93  ASN93      -0.1240
    165  CA        19.9100   40.4150   65.5560 C.3    93  ASN93       0.1653
    166  C         18.4140   40.2820   65.8330 C.2    93  ASN93       0.2266
    167  O         17.9990   39.3420   66.5180 O.2    93  ASN93      -0.2867
    168  CB        20.6230   40.9840   66.7830 C.3    93  ASN93       0.1155
    169  CG        22.1190   40.7520   66.7290 C.2    93  ASN93       0.2627
    170  OD1       22.5720   39.6590   66.3830 O.2    93  ASN93      -0.2716
    171  ND2       22.8950   41.7770   67.0700 N.am   93  ASN93      -0.0877
    172  N         27.6730   34.2960   57.2110 N.3   140  HIS140     -0.1241
    173  CA        28.1180   35.3750   58.0860 C.3   140  HIS140      0.1621
    174  C         28.9400   36.4450   57.3480 C.2   140  HIS140      0.2264
    175  O         28.7000   37.6540   57.4900 O.2   140  HIS140     -0.2867
    176  CB        28.9370   34.7750   59.2420 C.3   140  HIS140      0.0745
    177  CG        28.6710   35.4010   60.5760 C.ar  140  HIS140      0.0817
    178  ND1       29.1960   34.9000   61.7490 N.ar  140  HIS140     -0.2268
    179  CD2       27.9530   36.4970   60.9240 C.ar  140  HIS140      0.1154
    180  CE1       28.8140   35.6590   62.7610 C.ar  140  HIS140      0.1986
    181  NE2       28.0600   36.6370   62.2860 N.ar  140  HIS140     -0.2212
    182  N         28.6530   40.8290   57.5980 N.3   144  VAL144     -0.1231
    183  CA        29.6570   41.6520   58.2550 C.3   144  VAL144      0.1692
    184  C         31.0320   41.1390   57.8550 C.2   144  VAL144      0.2592
    185  O         31.1460   40.0570   57.2790 O.2   144  VAL144     -0.2718
    186  CB        29.5170   41.6340   59.8100 C.3   144  VAL144      0.0266
    187  CG1       28.2400   42.3850   60.2310 C.3   144  VAL144      0.0020
    188  CG2       29.5220   40.2000   60.3330 C.3   144  VAL144      0.0020
    189  N         32.0610   41.9340   58.1490 N.am  145  ASN145     -0.1960
    190  CA        33.4530   41.6050   57.8270 C.3   145  ASN145      0.1819
    191  C         34.0090   40.6620   58.8850 C.2   145  ASN145      0.2621
    192  O         34.5930   41.0970   59.8720 O.2   145  ASN145     -0.2715
    193  CB        34.2870   42.8910   57.7700 C.3   145  ASN145      0.1195
    194  CG        35.7640   42.6150   57.5710 C.2   145  ASN145      0.2630
    195  OD1       36.1420   41.7130   56.8220 O.2   145  ASN145     -0.2716
    196  ND2       36.6120   43.4030   58.2330 N.am  145  ASN145     -0.0877
    197  N         33.8470   39.3640   58.6580 N.am  146  ILE146     -0.1963
    198  CA        34.2800   38.3730   59.6260 C.3   146  ILE146      0.1727
    199  C         34.7010   37.0470   58.9850 C.2   146  ILE146      0.2616
    200  O         34.2820   36.7150   57.8800 O.2   146  ILE146     -0.2715
    201  CB        33.1210   38.1050   60.6220 C.3   146  ILE146      0.0290
    202  CG1       33.5990   37.2430   61.7900 C.3   146  ILE146      0.0022
    203  CG2       31.9640   37.4090   59.8840 C.3   146  ILE146      0.0023
    204  CD1       32.5430   37.0260   62.8520 C.3   146  ILE146      0.0001
    205  N         35.5290   36.2900   59.6940 N.am  147  LEU147     -0.1963
    206  CA        35.9930   34.9890   59.2160 C.3   147  LEU147      0.1728
    207  C         35.0040   33.9360   59.7110 C.2   147  LEU147      0.2616
    208  O         35.2700   33.2190   60.6840 O.2   147  LEU147     -0.2715
    209  CB        37.3910   34.6980   59.7640 C.3   147  LEU147      0.0311
    210  CG        38.4310   34.3630   58.6960 C.3   147  LEU147      0.0022
    211  CD1       38.0540   33.0400   58.0510 C.3   147  LEU147      0.0001
    212  CD2       38.4990   35.4830   57.6460 C.3   147  LEU147      0.0001
    213  N         33.8630   33.8580   59.0240 N.am  148  SER148     -0.1950
    214  CA        32.7750   32.9410   59.3770 C.3   148  SER148      0.1924
    215  C         31.7470   32.9750   58.2300 C.2   148  SER148      0.2314
    216  O         31.4840   34.0300   57.6550 O.2   148  SER148     -0.2863
    217  CB        32.1230   33.4170   60.6880 C.3   148  SER148      0.2116
    218  OG        31.1140   32.5380   61.1450 O.3   148  SER148     -0.2180
@<TRIPOS>BOND
     1   195   194    2
     2   172   173    1
     3   185   184    2
     4   174   175    2
     5   174   173    1
     6   194   193    1
     7   194   196   am
     8   182   183    1
     9   212   210    1
    10   216   215    2
    11   193   190    1
    12   190   189    1
    13   190   191    1
    14   184   189   am
    15   184   183    1
    16   200   199    2
    17   211   210    1
    18   173   176    1
    19   215   214    1
    20   183   186    1
    21   197   191   am
    22   197   198    1
    23   210   209    1
    24   191   192    2
    25   199   198    1
    26   199   205   am
    27   213   214    1
    28   213   207   am
    29   206   205    1
    30   206   207    1
    31   206   209    1
    32   176   177    1
    33   214   217    1
    34   198   201    1
    35   207   208    2
    36   186   187    1
    37   186   188    1
    38   203   201    1
    39   177   179   ar
    40   177   178   ar
    41     1     2    1
    42   201   202    1
    43   217   218    1
    44   179   181   ar
    45    17    15   ar
    46    17    18   ar
    47   147   145    1
    48    15    14   ar
    49     2     3    1
    50     2     5    1
    51   163   162    2
    52    18    16   ar
    53     4     3    2
    54   151   150    2
    55    14    16   ar
    56    14    13    1
    57     3     9   am
    58   178   180   ar
    59    13    10    1
    60   202   204    1
    61   162   161    1
    62     9    10    1
    63   146   145    1
    64     6     5    1
    65     6     8    1
    66   181   180   ar
    67   145   142    1
    68   161   160    1
    69     5     7    1
    70    10    11    1
    71   150   160   am
    72   150   149    1
    73   152   149    1
    74   152   153    1
    75   142   143    1
    76   142   141    1
    77   148   143   am
    78   148   149    1
    79   139   137   ar
    80   139   140   ar
    81   143   144    2
    82    11    12    2
    83    11    19   am
    84   137   136   ar
    85   164   165    1
    86   154   153   ar
    87   154   156   ar
    88   153   155   ar
    89   134   133    2
    90   141   133   am
    91   140   138   ar
    92    30    27    1
    93    27    26    1
    94    27    28    1
    95    19    20    1
    96    26    21   am
    97   133   132    1
    98   136   138   ar
    99   136   135    1
   100   156   158   ar
   101   165   166    1
   102   165   168    1
   103   166   167    2
   104   135   132    1
   105   155   157   ar
   106    28    29    2
   107    28    31   am
   108    21    20    1
   109    21    22    2
   110    20    23    1
   111   170   169    2
   112   132   131    1
   113    34    33    2
   114   169   168    1
   115   169   171   am
   116   158   157   ar
   117   158   159    1
   118    31    32    1
   119   109   107   ar
   120   109   110   ar
   121    24    23    1
   122   107   105   ar
   123   131   127   am
   124   111   110    1
   125    23    25    1
   126   110   108   ar
   127    33    32    1
   128   105   104    1
   129   105   106   ar
   130   104   101    1
   131   108   106   ar
   132   127   128    2
   133   127   126    1
   134   101   102    1
   135   101   100    1
   136   119   118    2
   137   122   121    1
   138   122   123    1
   139   102   103    2
   140   121   114   am
   141   125   123   am
   142   125   126    1
   143   123   124    2
   144   118   120   am
   145   118   117    1
   146    74    72    1
   147   126   129    1
   148    73    72    1
   149   117   116    1
   150    72    71    2
   151   114   113    1
   152   114   115    2
   153   113   116    1
   154   113   112    1
   155   129   130    1
   156    93    91   ar
   157    93    92   ar
   158    62    63   ar
   159    62    60   ar
   160    63    61   ar
   161    42    40    1
   162    91    89   ar
   163    71    70    1
   164    92    90   ar
   165    70    69    1
   166    60    59   ar
   167    61    59   ar
   168    89    88   ar
   169    41    39    1
   170    40    39    1
   171    52    53   ar
   172    52    50   ar
   173    69    68    1
   174    59    58    1
   175    53    51   ar
   176    90    88   ar
   177    39    36    1
   178    88    87    1
   179    50    48   ar
   180    68    65    1
   181    51    49   ar
   182    58    55    1
   183    87    84    1
   184    36    37    1
   185    36    35    1
   186    48    49   ar
   187    48    47    1
   188    67    66    2
   189    65    66    1
   190    65    64    1
   191    55    54    1
   192    55    56    1
   193    38    37    2
   194    66    75   am
   195    84    83    1
   196    84    85    1
   197    47    44    1
   198    54    45   am
   199    57    56    2
   200    83    77   am
   201    45    46    2
   202    45    44    1
   203    94    85   am
   204    94    95    1
   205    85    86    2
   206    78    77    2
   207    77    76    1
   208    75    76    1
   209    44    43    1
   210    98    95    1
   211    98    99    1
   212    95    96    1
   213    76    79    1
   214    79    80    1
   215    96    97    2
   216    82    80   am
   217    80    81    2
