@<TRIPOS>MOLECULE
tmp/2aq6A00.pdb
 86 82 0 0 0
SMALL
GASTEIGER

@<TRIPOS>ATOM
      1  N         15.7970   37.7990   55.2610 N.3    28  GLN28      -0.1231
      2  CA        15.3220   36.4170   55.3040 C.3    28  GLN28       0.1698
      3  C         16.1070   35.7320   54.1930 C.2    28  GLN28       0.2592
      4  O         16.1980   36.2570   53.0840 O.2    28  GLN28      -0.2718
      5  CB        13.8280   36.3030   55.0030 C.3    28  GLN28       0.0381
      6  CG        13.3420   34.8520   55.0670 C.3    28  GLN28       0.0905
      7  CD        11.8450   34.7160   54.9080 C.2    28  GLN28       0.2608
      8  OE1       11.0810   35.5310   55.4230 O.2    28  GLN28      -0.2717
      9  NE2       11.4140   33.6650   54.2110 N.am   28  GLN28      -0.0878
     10  N         16.6810   34.5690   54.4790 N.am   29  LEU29      -0.1966
     11  CA        17.4640   33.8680   53.4700 C.3    29  LEU29       0.1728
     12  C         16.7850   32.5860   53.0030 C.2    29  LEU29       0.2617
     13  O         16.2840   31.8100   53.8140 O.2    29  LEU29      -0.2715
     14  CB        18.8640   33.5550   54.0180 C.3    29  LEU29       0.0311
     15  CG        19.6460   34.7590   54.5570 C.3    29  LEU29       0.0022
     16  CD1       21.0180   34.2970   55.0530 C.3    29  LEU29       0.0001
     17  CD2       19.8090   35.8020   53.4620 C.3    29  LEU29       0.0001
     18  N         16.7700   32.3870   51.6860 N.am   30  SER30      -0.1936
     19  CA        16.1540   31.2150   51.0640 C.3    30  SER30       0.2055
     20  C         17.0390   30.7580   49.9100 C.2    30  SER30       0.2643
     21  O         17.7240   31.5740   49.3030 O.2    30  SER30      -0.2714
     22  CB        14.7810   31.5830   50.4810 C.3    30  SER30       0.2130
     23  OG        14.0430   32.4300   51.3470 O.3    30  SER30      -0.2179
     24  N         17.0460   29.4650   49.6020 N.am   31  ASN31      -0.1971
     25  CA        17.8370   29.0310   48.4580 C.3    31  ASN31       0.1688
     26  C         16.8240   28.9020   47.3290 C.2    31  ASN31       0.2292
     27  O         15.6840   28.4870   47.5510 O.2    31  ASN31      -0.2864
     28  CB        18.5760   27.7130   48.7400 C.3    31  ASN31       0.1181
     29  CG        17.6530   26.5290   48.8760 C.2    31  ASN31       0.2629
     30  OD1       16.4700   26.6720   49.1820 O.2    31  ASN31      -0.2716
     31  ND2       18.2010   25.3340   48.6690 N.am   31  ASN31      -0.0877
     32  N         11.0090   31.1970   39.9750 N.3    46  SER46      -0.1202
     33  CA         9.5970   30.8910   40.1660 C.3    46  SER46       0.2020
     34  C          9.3230   30.7800   41.6620 C.2    46  SER46       0.2619
     35  O          9.9590   29.9870   42.3530 O.2    46  SER46      -0.2717
     36  CB         9.2470   29.5710   39.4690 C.3    46  SER46       0.2103
     37  OG         7.9240   29.1610   39.7760 O.3    46  SER46      -0.2182
     38  N          8.3850   31.5790   42.1670 N.am   47  ILE47      -0.1965
     39  CA         8.0480   31.5320   43.5860 C.3    47  ILE47       0.1727
     40  C          6.5340   31.4300   43.7840 C.2    47  ILE47       0.2616
     41  O          5.7680   31.6680   42.8540 O.2    47  ILE47      -0.2715
     42  CB         8.5900   32.7770   44.3370 C.3    47  ILE47       0.0290
     43  CG1        7.9600   34.0550   43.7770 C.3    47  ILE47       0.0022
     44  CG2       10.1130   32.8350   44.2030 C.3    47  ILE47       0.0023
     45  CD1        8.4040   35.3150   44.4930 C.3    47  ILE47       0.0001
     46  N          6.1090   31.0530   44.9870 N.am   48  ALA48      -0.1977
     47  CA         4.6820   30.9110   45.2770 C.3    48  ALA48       0.1597
     48  C          4.1930   32.0500   46.1680 C.2    48  ALA48       0.2287
     49  O          4.8280   32.3890   47.1650 O.2    48  ALA48      -0.2864
     50  CB         4.4140   29.5640   45.9440 C.3    48  ALA48       0.0319
     51  N          4.2750   32.0110   50.1210 N.3    51  ARG51      -0.1231
     52  CA         5.5410   31.9660   50.8360 C.3    51  ARG51       0.1694
     53  C          5.9340   33.3040   51.4540 C.2    51  ARG51       0.2592
     54  O          5.6480   34.3650   50.9010 O.2    51  ARG51      -0.2718
     55  CB         6.6510   31.4560   49.9150 C.3    51  ARG51       0.0321
     56  CG         6.4130   30.0730   49.3070 C.3    51  ARG51       0.0489
     57  CD         5.9440   29.0670   50.3600 C.3    51  ARG51       0.2205
     58  NE         5.9540   27.7060   49.8300 N.pl3  51  ARG51      -0.0865
     59  CZ         5.9390   26.6030   50.5770 C.cat  51  ARG51       0.5346
     60  NH1        5.9530   25.4150   49.9930 N.pl3  51  ARG51       0.1354
     61  NH2        5.9310   26.6830   51.9030 N.pl3  51  ARG51       0.1354
     62  N          6.5880   33.2390   52.6110 N.am   52  ALA52      -0.1966
     63  CA         7.0070   34.4400   53.3180 C.3    52  ALA52       0.1728
     64  C          7.9050   35.3150   52.4500 C.2    52  ALA52       0.2616
     65  O          7.7260   36.5310   52.3930 O.2    52  ALA52      -0.2715
     66  CB         7.7300   34.0640   54.6110 C.3    52  ALA52       0.0334
     67  N          8.8640   34.7000   51.7670 N.am   53  LYS53      -0.1977
     68  CA         9.7640   35.4670   50.9160 C.3    53  LYS53       0.1596
     69  C          9.0010   36.2400   49.8420 C.2    53  LYS53       0.2287
     70  O          9.3870   37.3440   49.4760 O.2    53  LYS53      -0.2864
     71  CB        10.8040   34.5560   50.2600 C.3    53  LYS53       0.0298
     72  CG        10.2480   33.4900   49.3340 C.3    53  LYS53       0.0038
     73  CD        11.3750   32.8770   48.5160 C.3    53  LYS53       0.0206
     74  CE        10.8890   31.7350   47.6500 C.3    53  LYS53       0.1093
     75  NZ        10.3080   30.6610   48.4830 N.3    53  LYS53      -0.1314
     76  N          1.5950   30.4260   41.5850 N.3   125  ARG125     -0.1245
     77  CA         2.9600   30.7390   41.1780 C.3   125  ARG125      0.1563
     78  C          3.1460   32.1380   40.6090 C.2   125  ARG125      0.2260
     79  O          2.2570   32.6930   39.9620 O.2   125  ARG125     -0.2867
     80  CB         3.4590   29.7010   40.1750 C.3   125  ARG125      0.0307
     81  CG         3.7790   28.3560   40.8050 C.3   125  ARG125      0.0489
     82  CD         5.0720   28.4210   41.6060 C.3   125  ARG125      0.2205
     83  NE         5.3530   27.1690   42.3020 N.pl3 125  ARG125     -0.0865
     84  CZ         6.4730   26.9260   42.9770 C.cat 125  ARG125      0.5346
     85  NH1        7.4230   27.8490   43.0420 N.pl3 125  ARG125      0.1354
     86  NH2        6.6400   25.7670   43.5960 N.pl3 125  ARG125      0.1354
@<TRIPOS>BOND
     1    36    37    1
     2    36    33    1
     3    79    78    2
     4    32    33    1
     5    33    34    1
     6    80    81    1
     7    80    77    1
     8    78    77    1
     9    81    82    1
    10    77    76    1
    11    82    83    1
    12    34    38   am
    13    34    35    2
    14    38    39    1
    15    83    84    2
    16    41    40    2
    17    84    85    1
    18    84    86    1
    19    39    40    1
    20    39    42    1
    21    43    42    1
    22    43    45    1
    23    40    46   am
    24    44    42    1
    25    46    47    1
    26    47    50    1
    27    47    48    1
    28    48    49    2
    29    26    27    2
    30    26    25    1
    31    74    75    1
    32    74    73    1
    33    25    28    1
    34    25    24    1
    35    73    72    1
    36    31    29   am
    37    28    29    1
    38    29    30    2
    39    21    20    2
    40    56    55    1
    41    56    57    1
    42    72    71    1
    43    70    69    2
    44    24    20   am
    45    58    57    1
    46    58    59    2
    47    69    68    1
    48    20    19    1
    49    55    52    1
    50    60    59    1
    51    51    52    1
    52    71    68    1
    53    22    19    1
    54    22    23    1
    55    59    61    1
    56    52    53    1
    57    54    53    2
    58    68    67    1
    59    19    18    1
    60    53    62   am
    61    18    12   am
    62    67    64   am
    63    65    64    2
    64    64    63    1
    65    62    63    1
    66    12    11    1
    67    12    13    2
    68     4     3    2
    69    63    66    1
    70    17    15    1
    71    11    14    1
    72    11    10    1
    73    14    15    1
    74     3    10   am
    75     3     2    1
    76     9     7   am
    77    15    16    1
    78     7     6    1
    79     7     8    2
    80     5     6    1
    81     5     2    1
    82     1     2    1
