@<TRIPOS>MOLECULE
tmp/2aq7D00.pdb
 141 134 0 0 0
SMALL
GASTEIGER

@<TRIPOS>ATOM
      1  N         -6.4540   45.4460   35.3680 N.3   162  CYS162     -0.1235
      2  CA        -6.9050   44.2450   36.0660 C.3   162  CYS162      0.1677
      3  C         -6.1520   43.9550   37.3680 C.2   162  CYS162      0.2270
      4  O         -6.5480   43.0720   38.1160 O.2   162  CYS162     -0.2867
      5  CB        -6.7820   43.0400   35.1420 C.3   162  CYS162      0.0956
      6  SG        -7.2910   43.4070   33.4420 S.3   162  CYS162     -0.0801
      7  N        -11.5310   41.0910   23.2010 N.3   205  ALA205     -0.1245
      8  CA       -11.1150   40.4760   24.4680 C.3   205  ALA205      0.1562
      9  C        -12.2220   39.6650   25.1500 C.2   205  ALA205      0.2260
     10  O        -11.9340   38.8140   25.9940 O.2   205  ALA205     -0.2867
     11  CB       -10.5860   41.5410   25.4220 C.3   205  ALA205      0.0290
     12  N        -12.7910   36.7680   27.9820 N.3   228  PHE228     -0.1241
     13  CA       -13.3430   36.8510   29.3300 C.3   228  PHE228      0.1605
     14  C        -14.7850   37.3460   29.3190 C.2   228  PHE228      0.2264
     15  O        -15.2860   37.8150   28.2960 O.2   228  PHE228     -0.2867
     16  CB       -12.4160   37.6440   30.2870 C.3   228  PHE228      0.0534
     17  CG       -12.4120   39.1450   30.1040 C.ar  228  PHE228     -0.0203
     18  CD1      -13.4030   39.9370   30.6750 C.ar  228  PHE228     -0.0042
     19  CD2      -11.3630   39.7720   29.4550 C.ar  228  PHE228     -0.0042
     20  CE1      -13.3820   41.3130   30.5550 C.ar  228  PHE228     -0.0003
     21  CE2      -11.3340   41.1620   29.3250 C.ar  228  PHE228     -0.0003
     22  CZ       -12.3480   41.9300   29.8740 C.ar  228  PHE228     -0.0000
     23  N          6.1120   44.3910   32.6970 N.3   264  ASP264     -0.1239
     24  CA         6.6160   43.5940   31.5720 C.3   264  ASP264      0.1674
     25  C          7.5620   44.4380   30.7320 C.2   264  ASP264      0.2266
     26  O          8.6410   43.9920   30.3560 O.2   264  ASP264     -0.2867
     27  CB         5.4710   43.0930   30.6810 C.3   264  ASP264      0.1410
     28  CG         4.6520   41.9800   31.3200 C.2   264  ASP264      0.3668
     29  OD1        5.0830   41.3840   32.3350 O.co2 264  ASP264     -0.2456
     30  OD2        3.5620   41.6870   30.7850 O.co2 264  ASP264     -0.2456
     31  N          5.0100   44.2110   25.5970 N.3   267  ASP267     -0.1225
     32  CA         3.7820   44.3260   24.7800 C.3   267  ASP267      0.1805
     33  C          2.6570   44.9560   25.6080 C.2   267  ASP267      0.2598
     34  O          2.5440   44.7020   26.8100 O.2   267  ASP267     -0.2718
     35  CB         3.3100   42.9330   24.3260 C.3   267  ASP267      0.1424
     36  CG         4.0680   42.3980   23.1050 C.2   267  ASP267      0.3668
     37  OD1        4.7980   43.1680   22.4340 O.co2 267  ASP267     -0.2456
     38  OD2        3.9160   41.1840   22.8090 O.co2 267  ASP267     -0.2456
     39  N          1.8180   45.7630   24.9590 N.am  268  MET268     -0.1965
     40  CA         0.7610   46.5110   25.6470 C.3   268  MET268      0.1736
     41  C         -0.4010   45.6360   26.0890 C.2   268  MET268      0.2616
     42  O         -0.9050   45.7750   27.2090 O.2   268  MET268     -0.2715
     43  CB         0.2130   47.6300   24.7500 C.3   268  MET268      0.0427
     44  CG         0.9800   48.9290   24.8340 C.3   268  MET268      0.0599
     45  SD         0.8890   49.6770   26.4690 S.3   268  MET268     -0.1393
     46  CE        -0.6430   50.5960   26.3900 C.3   268  MET268      0.0692
     47  N         -0.8310   44.7400   25.2090 N.am  269  VAL269     -0.1963
     48  CA        -2.0590   43.9750   25.4420 C.3   269  VAL269      0.1727
     49  C         -1.8490   42.4550   25.5410 C.2   269  VAL269      0.2616
     50  O         -2.8100   41.7210   25.7320 O.2   269  VAL269     -0.2715
     51  CB        -3.1660   44.3390   24.3990 C.3   269  VAL269      0.0290
     52  CG1       -3.9400   45.5760   24.8630 C.3   269  VAL269      0.0023
     53  CG2       -2.5860   44.5710   23.0020 C.3   269  VAL269      0.0023
     54  N         -0.5950   42.0040   25.4730 N.am  270  ALA270     -0.1964
     55  CA        -0.2500   40.5820   25.5940 C.3   270  ALA270      0.1713
     56  C          0.8360   40.3600   26.6610 C.2   270  ALA270      0.2458
     57  O          1.8700   41.0340   26.6330 O.2   270  ALA270     -0.2730
     58  CB         0.2290   40.0480   24.2480 C.3   270  ALA270      0.0333
     59  N          0.6180   39.4050   27.5920 N.am  271  PRO271     -0.2727
     60  CA         1.5970   39.1330   28.6580 C.3   271  PRO271      0.1402
     61  C          2.8980   38.5200   28.1420 C.2   271  PRO271      0.2269
     62  O          2.8690   37.6690   27.2510 O.2   271  PRO271     -0.2865
     63  CB         0.8690   38.1220   29.5570 C.3   271  PRO271      0.0296
     64  CG        -0.1220   37.4620   28.6580 C.3   271  PRO271      0.0237
     65  CD        -0.5580   38.5190   27.6910 C.3   271  PRO271      0.0939
     66  N         -4.8740   34.3780   37.8080 N.3   297  HIS297     -0.1241
     67  CA        -5.5020   35.5220   37.1410 C.3   297  HIS297      0.1621
     68  C         -6.5700   34.9890   36.1620 C.2   297  HIS297      0.2264
     69  O         -7.7170   35.4300   36.1820 O.2   297  HIS297     -0.2867
     70  CB        -4.4270   36.3780   36.4640 C.3   297  HIS297      0.0745
     71  CG        -4.9640   37.5050   35.6410 C.ar  297  HIS297      0.0817
     72  ND1       -5.7480   38.5080   36.1670 N.ar  297  HIS297     -0.2268
     73  CD2       -4.8060   37.7980   34.3290 C.ar  297  HIS297      0.1154
     74  CE1       -6.0630   39.3630   35.2100 C.ar  297  HIS297      0.1986
     75  NE2       -5.5040   38.9560   34.0860 N.ar  297  HIS297     -0.2212
     76  N         -8.3520   34.6150   33.1490 N.3   299  THR299     -0.1218
     77  CA        -9.5180   35.3530   32.6500 C.3   299  THR299      0.1862
     78  C        -10.3480   34.5990   31.5990 C.2   299  THR299      0.2287
     79  O        -11.4610   35.0090   31.2780 O.2   299  THR299     -0.2866
     80  CB        -9.0690   36.6770   32.0400 C.3   299  THR299      0.1770
     81  OG1       -8.0740   36.4170   31.0470 O.3   299  THR299     -0.2211
     82  CG2       -8.4680   37.5760   33.1130 C.3   299  THR299      0.0375
     83  N         -9.0280   33.6980   28.4040 N.3   301  THR301     -0.1218
     84  CA        -8.5120   34.1040   27.0960 C.3   301  THR301      0.1862
     85  C         -7.4940   33.0710   26.5790 C.2   301  THR301      0.2287
     86  O         -6.7420   32.5030   27.3730 O.2   301  THR301     -0.2866
     87  CB        -7.7840   35.4710   27.1600 C.3   301  THR301      0.1770
     88  OG1       -6.5060   35.3190   27.7870 O.3   301  THR301     -0.2211
     89  CG2       -8.5940   36.4970   27.9260 C.3   301  THR301      0.0375
     90  N         -3.6030   34.4590   27.2880 N.3   304  GLY304     -0.1225
     91  CA        -3.4020   34.8180   28.6920 C.3   304  GLY304      0.1811
     92  C         -3.2970   33.6490   29.6530 C.2   304  GLY304      0.2280
     93  O         -2.3340   33.5490   30.4240 O.2   304  GLY304     -0.2866
     94  N        -14.8070   38.4760   35.0590 N.3   332  HIS332     -0.1241
     95  CA       -13.6620   39.3530   35.2810 C.3   332  HIS332      0.1621
     96  C        -14.1820   40.7210   35.6820 C.2   332  HIS332      0.2264
     97  O        -14.7120   41.4620   34.8460 O.2   332  HIS332     -0.2867
     98  CB       -12.8300   39.4640   33.9900 C.3   332  HIS332      0.0745
     99  CG       -11.4830   40.1010   34.1730 C.ar  332  HIS332      0.0817
    100  ND1      -11.0960   40.7080   35.3480 N.ar  332  HIS332     -0.2268
    101  CD2      -10.4450   40.2500   33.3160 C.ar  332  HIS332      0.1154
    102  CE1       -9.8750   41.1910   35.2130 C.ar  332  HIS332      0.1986
    103  NE2       -9.4580   40.9310   33.9870 N.ar  332  HIS332     -0.2212
    104  N         -2.7320   40.2270   36.8860 N.3   389  PHE389     -0.1227
    105  CA        -1.9360   40.8260   35.8150 C.3   389  PHE389      0.1736
    106  C         -2.8580   41.6650   34.9480 C.2   389  PHE389      0.2596
    107  O         -3.8890   41.1760   34.5130 O.2   389  PHE389     -0.2718
    108  CB        -1.2930   39.7360   34.9560 C.3   389  PHE389      0.0547
    109  CG        -0.5880   38.6680   35.7500 C.ar  389  PHE389     -0.0202
    110  CD1        0.3900   39.0030   36.6710 C.ar  389  PHE389     -0.0042
    111  CD2       -0.8890   37.3280   35.5620 C.ar  389  PHE389     -0.0042
    112  CE1        1.0460   38.0260   37.4060 C.ar  389  PHE389     -0.0003
    113  CE2       -0.2330   36.3430   36.2910 C.ar  389  PHE389     -0.0003
    114  CZ         0.7340   36.6930   37.2120 C.ar  389  PHE389     -0.0000
    115  N         -2.4960   42.9170   34.6930 N.am  390  GLY390     -0.1942
    116  CA        -3.3380   43.8140   33.8960 C.3   390  GLY390      0.2014
    117  C         -2.7280   44.2620   32.5820 C.2   390  GLY390      0.2638
    118  O         -1.5210   44.1350   32.3650 O.2   390  GLY390     -0.2714
    119  N         -3.5770   44.7880   31.6970 N.am  391  PHE391     -0.1973
    120  CA        -3.1140   45.4330   30.4690 C.3   391  PHE391      0.1639
    121  C         -2.0930   46.5130   30.8150 C.2   391  PHE391      0.2290
    122  O         -2.1800   47.1440   31.8690 O.2   391  PHE391     -0.2864
    123  CB        -4.2710   46.0940   29.7040 C.3   391  PHE391      0.0560
    124  CG        -5.2080   45.1350   29.0080 C.ar  391  PHE391     -0.0200
    125  CD1       -4.8280   43.8340   28.6760 C.ar  391  PHE391     -0.0042
    126  CD2       -6.4730   45.5700   28.6370 C.ar  391  PHE391     -0.0042
    127  CE1       -5.7180   42.9750   28.0200 C.ar  391  PHE391     -0.0003
    128  CE2       -7.3620   44.7240   27.9760 C.ar  391  PHE391     -0.0003
    129  CZ        -6.9840   43.4230   27.6690 C.ar  391  PHE391     -0.0000
    130  N          1.1030   45.5950   30.9340 N.3   393  GLY393     -0.1225
    131  CA         2.2170   44.7920   31.4250 C.3   393  GLY393      0.1811
    132  C          2.4430   44.9760   32.9090 C.2   393  GLY393      0.2280
    133  O          3.5740   44.9300   33.3800 O.2   393  GLY393     -0.2866
    134  N          1.8340   43.8210   36.7930 N.3   395  ASN395     -0.1240
    135  CA         1.6300   42.5840   37.5360 C.3   395  ASN395      0.1653
    136  C          1.5990   42.8190   39.0370 C.2   395  ASN395      0.2266
    137  O          2.3690   43.6280   39.5550 O.2   395  ASN395     -0.2867
    138  CB         2.7560   41.6050   37.2090 C.3   395  ASN395      0.1155
    139  CG         2.9790   41.4670   35.7190 C.2   395  ASN395      0.2627
    140  OD1        2.0470   41.1790   34.9760 O.2   395  ASN395     -0.2716
    141  ND2        4.2060   41.7080   35.2730 N.am  395  ASN395     -0.0877
@<TRIPOS>BOND
     1    37    36   ar
     2    38    36   ar
     3    53    51    1
     4    36    35    1
     5     7     8    1
     6    58    55    1
     7    35    32    1
     8    51    52    1
     9    51    48    1
    10     8     9    1
    11     8    11    1
    12    43    44    1
    13    43    40    1
    14    32    31    1
    15    32    33    1
    16    44    45    1
    17    39    33   am
    18    39    40    1
    19     9    10    2
    20    47    48    1
    21    47    41   am
    22    48    49    1
    23    54    49   am
    24    54    55    1
    25    49    50    2
    26    55    56    1
    27    33    34    2
    28    40    41    1
    29    41    42    2
    30    46    45    1
    31    85    84    1
    32    85    86    2
    33    57    56    2
    34    56    59   am
    35    84    87    1
    36    84    83    1
    37    87    88    1
    38    87    89    1
    39    62    61    2
    40    90    91    1
    41    59    65    1
    42    59    60    1
    43   129   128   ar
    44   129   127   ar
    45    65    64    1
    46   128   126   ar
    47    12    13    1
    48   127   125   ar
    49    61    60    1
    50    15    14    2
    51   126   124   ar
    52    64    63    1
    53    60    63    1
    54   125   124   ar
    55    91    92    1
    56   124   123    1
    57    14    13    1
    58    21    19   ar
    59    21    22   ar
    60    13    16    1
    61    19    17   ar
    62    92    93    2
    63   123   120    1
    64    22    20   ar
    65    17    16    1
    66    17    18   ar
    67    26    25    2
    68   120   121    1
    69   120   119    1
    70    20    18   ar
    71    27    28    1
    72    27    24    1
    73    25    24    1
    74    30    28   ar
    75   121   122    2
    76   130   131    1
    77    81    80    1
    78    79    78    2
    79    28    29   ar
    80   131   132    1
    81    24    23    1
    82    78    77    1
    83   119   117   am
    84    80    77    1
    85    80    82    1
    86   118   117    2
    87   117   116    1
    88    77    76    1
    89   132   133    2
    90   101   103   ar
    91   101    99   ar
    92     6     5    1
    93   116   115    1
    94   103   102   ar
    95    98    99    1
    96    98    95    1
    97    75    73   ar
    98    75    74   ar
    99    99   100   ar
   100    73    71   ar
   101   107   106    2
   102   115   106   am
   103    97    96    2
   104   106   105    1
   105   108   109    1
   106   108   105    1
   107   140   139    2
   108    94    95    1
   109     5     2    1
   110    74    72   ar
   111   102   100   ar
   112   141   139   am
   113    95    96    1
   114     1     2    1
   115   111   109   ar
   116   111   113   ar
   117    71    72   ar
   118    71    70    1
   119   139   138    1
   120   109   110   ar
   121   105   104    1
   122     2     3    1
   123    68    69    2
   124    68    67    1
   125   113   114   ar
   126    70    67    1
   127   110   112   ar
   128   134   135    1
   129    67    66    1
   130   138   135    1
   131   114   112   ar
   132     3     4    2
   133   135   136    1
   134   136   137    2
