@<TRIPOS>MOLECULE
tmp/2aqbD00.pdb
 141 134 0 0 0
SMALL
GASTEIGER

@<TRIPOS>ATOM
      1  N         -6.3800   45.3540   35.3930 N.3   162  CYS162     -0.1235
      2  CA        -6.7890   44.1220   36.0720 C.3   162  CYS162      0.1677
      3  C         -6.0850   43.8900   37.4070 C.2   162  CYS162      0.2270
      4  O         -6.4880   43.0210   38.1750 O.2   162  CYS162     -0.2867
      5  CB        -6.5910   42.9090   35.1620 C.3   162  CYS162      0.0956
      6  SG        -7.0700   43.2240   33.4590 S.3   162  CYS162     -0.0801
      7  N        -11.5140   41.1350   23.2720 N.3   205  ALA205     -0.1245
      8  CA       -11.1040   40.5740   24.5640 C.3   205  ALA205      0.1562
      9  C        -12.1810   39.7300   25.2560 C.2   205  ALA205      0.2260
     10  O        -11.8660   38.9170   26.1330 O.2   205  ALA205     -0.2867
     11  CB       -10.6390   41.6920   25.4940 C.3   205  ALA205      0.0290
     12  N        -12.6380   36.8750   28.0010 N.3   228  PHE228     -0.1241
     13  CA       -13.2100   37.0100   29.3450 C.3   228  PHE228      0.1605
     14  C        -14.6680   37.4550   29.3770 C.2   228  PHE228      0.2264
     15  O        -15.1900   37.9920   28.4040 O.2   228  PHE228     -0.2867
     16  CB       -12.3000   37.7900   30.3250 C.3   228  PHE228      0.0534
     17  CG       -12.2990   39.3030   30.1690 C.ar  228  PHE228     -0.0203
     18  CD1      -13.2690   40.0910   30.7860 C.ar  228  PHE228     -0.0042
     19  CD2      -11.2640   39.9390   29.4910 C.ar  228  PHE228     -0.0042
     20  CE1      -13.2380   41.4910   30.6870 C.ar  228  PHE228     -0.0003
     21  CE2      -11.2200   41.3360   29.3820 C.ar  228  PHE228     -0.0003
     22  CZ       -12.2070   42.1090   29.9790 C.ar  228  PHE228     -0.0000
     23  N          6.1410   44.4200   32.7080 N.3   264  ASP264     -0.1239
     24  CA         6.6360   43.6460   31.5700 C.3   264  ASP264      0.1674
     25  C          7.5780   44.4890   30.7140 C.2   264  ASP264      0.2266
     26  O          8.6100   44.0000   30.2530 O.2   264  ASP264     -0.2867
     27  CB         5.4840   43.1220   30.6960 C.3   264  ASP264      0.1410
     28  CG         4.7090   41.9770   31.3420 C.2   264  ASP264      0.3668
     29  OD1        5.1140   41.4530   32.4060 O.co2 264  ASP264     -0.2456
     30  OD2        3.6780   41.5910   30.7610 O.co2 264  ASP264     -0.2456
     31  N          4.7970   44.2360   25.8280 N.3   267  ASP267     -0.1225
     32  CA         3.5640   44.3570   25.0370 C.3   267  ASP267      0.1805
     33  C          2.4200   44.9880   25.8400 C.2   267  ASP267      0.2598
     34  O          2.2500   44.7030   27.0360 O.2   267  ASP267     -0.2718
     35  CB         3.1270   42.9940   24.4900 C.3   267  ASP267      0.1424
     36  CG         3.9050   42.5670   23.2350 C.2   267  ASP267      0.3668
     37  OD1        4.6700   43.3810   22.6620 O.co2 267  ASP267     -0.2456
     38  OD2        3.7400   41.3940   22.8130 O.co2 267  ASP267     -0.2456
     39  N          1.6390   45.8340   25.1680 N.am  268  MET268     -0.1965
     40  CA         0.5560   46.5890   25.7990 C.3   268  MET268      0.1736
     41  C         -0.6120   45.7310   26.2630 C.2   268  MET268      0.2616
     42  O         -1.1890   45.9800   27.3250 O.2   268  MET268     -0.2715
     43  CB         0.0300   47.6770   24.8540 C.3   268  MET268      0.0427
     44  CG         0.7850   48.9890   24.9160 C.3   268  MET268      0.0599
     45  SD         0.8000   49.7280   26.5630 S.3   268  MET268     -0.1393
     46  CE        -0.7730   50.5710   26.6530 C.3   268  MET268      0.0692
     47  N         -0.9710   44.7310   25.4640 N.am  269  VAL269     -0.1963
     48  CA        -2.1880   43.9610   25.7290 C.3   269  VAL269      0.1727
     49  C         -1.9680   42.4470   25.8320 C.2   269  VAL269      0.2616
     50  O         -2.9200   41.6910   26.0320 O.2   269  VAL269     -0.2715
     51  CB        -3.3310   44.3230   24.7300 C.3   269  VAL269      0.0290
     52  CG1       -3.9630   45.6620   25.1130 C.3   269  VAL269      0.0023
     53  CG2       -2.8250   44.3570   23.2870 C.3   269  VAL269      0.0023
     54  N         -0.7100   42.0220   25.7270 N.am  270  ALA270     -0.1964
     55  CA        -0.3360   40.6160   25.8900 C.3   270  ALA270      0.1713
     56  C          0.7560   40.4470   26.9540 C.2   270  ALA270      0.2458
     57  O          1.7360   41.1980   26.9580 O.2   270  ALA270     -0.2730
     58  CB         0.1240   40.0320   24.5570 C.3   270  ALA270      0.0333
     59  N          0.5930   39.4550   27.8560 N.am  271  PRO271     -0.2727
     60  CA         1.5900   39.1840   28.9030 C.3   271  PRO271      0.1402
     61  C          2.8870   38.6080   28.3270 C.2   271  PRO271      0.2269
     62  O          2.8490   37.8110   27.3860 O.2   271  PRO271     -0.2865
     63  CB         0.8970   38.1450   29.7930 C.3   271  PRO271      0.0296
     64  CG        -0.0900   37.4640   28.8840 C.3   271  PRO271      0.0237
     65  CD        -0.5510   38.5220   27.9210 C.3   271  PRO271      0.0939
     66  N         -4.7450   34.5330   37.8680 N.3   297  HIS297     -0.1241
     67  CA        -5.3500   35.6340   37.1270 C.3   297  HIS297      0.1621
     68  C         -6.4150   35.0770   36.1580 C.2   297  HIS297      0.2264
     69  O         -7.5630   35.5190   36.1750 O.2   297  HIS297     -0.2867
     70  CB        -4.2620   36.4590   36.4260 C.3   297  HIS297      0.0745
     71  CG        -4.7900   37.5500   35.5510 C.ar  297  HIS297      0.0817
     72  ND1       -5.5870   38.5700   36.0250 N.ar  297  HIS297     -0.2268
     73  CD2       -4.6230   37.7870   34.2280 C.ar  297  HIS297      0.1154
     74  CE1       -5.8960   39.3820   35.0300 C.ar  297  HIS297      0.1986
     75  NE2       -5.3170   38.9330   33.9300 N.ar  297  HIS297     -0.2212
     76  N         -8.2230   34.7140   33.1530 N.3   299  THR299     -0.1218
     77  CA        -9.4070   35.4440   32.6900 C.3   299  THR299      0.1862
     78  C        -10.2710   34.6630   31.6930 C.2   299  THR299      0.2287
     79  O        -11.4230   35.0240   31.4600 O.2   299  THR299     -0.2866
     80  CB        -9.0090   36.7770   32.0500 C.3   299  THR299      0.1770
     81  OG1       -8.1140   36.5200   30.9630 O.3   299  THR299     -0.2211
     82  CG2       -8.3150   37.6800   33.0720 C.3   299  THR299      0.0375
     83  N         -8.8500   33.6800   28.4730 N.3   301  THR301     -0.1218
     84  CA        -8.3670   34.0960   27.1560 C.3   301  THR301      0.1862
     85  C         -7.3690   33.0700   26.6080 C.2   301  THR301      0.2287
     86  O         -6.5990   32.4990   27.3780 O.2   301  THR301     -0.2866
     87  CB        -7.7050   35.4900   27.2070 C.3   301  THR301      0.1770
     88  OG1       -6.5040   35.4290   27.9850 O.3   301  THR301     -0.2211
     89  CG2       -8.6540   36.5200   27.8240 C.3   301  THR301      0.0375
     90  N         -3.4970   34.6140   27.3420 N.3   304  GLY304     -0.1225
     91  CA        -3.3480   34.9250   28.7640 C.3   304  GLY304      0.1811
     92  C         -3.3090   33.7250   29.7010 C.2   304  GLY304      0.2280
     93  O         -2.3750   33.5900   30.4950 O.2   304  GLY304     -0.2866
     94  N        -14.7660   38.6010   35.0910 N.3   332  HIS332     -0.1241
     95  CA       -13.6340   39.4960   35.3500 C.3   332  HIS332      0.1621
     96  C        -14.1450   40.8770   35.7660 C.2   332  HIS332      0.2264
     97  O        -14.6240   41.6410   34.9350 O.2   332  HIS332     -0.2867
     98  CB       -12.7780   39.6090   34.0790 C.3   332  HIS332      0.0745
     99  CG       -11.4450   40.2720   34.2780 C.ar  332  HIS332      0.0817
    100  ND1      -11.0750   40.8940   35.4520 N.ar  332  HIS332     -0.2268
    101  CD2      -10.4080   40.4410   33.4250 C.ar  332  HIS332      0.1154
    102  CE1       -9.8580   41.3900   35.3230 C.ar  332  HIS332      0.1986
    103  NE2       -9.4330   41.1340   34.1000 N.ar  332  HIS332     -0.2212
    104  N         -2.6920   40.3180   36.8480 N.3   389  PHE389     -0.1227
    105  CA        -1.8870   40.8740   35.7710 C.3   389  PHE389      0.1736
    106  C         -2.7980   41.6620   34.8450 C.2   389  PHE389      0.2596
    107  O         -3.7190   41.0940   34.2560 O.2   389  PHE389     -0.2718
    108  CB        -1.2080   39.7580   34.9670 C.3   389  PHE389      0.0547
    109  CG        -0.4800   38.7370   35.8060 C.ar  389  PHE389     -0.0202
    110  CD1        0.4510   39.1260   36.7670 C.ar  389  PHE389     -0.0042
    111  CD2       -0.6940   37.3780   35.5980 C.ar  389  PHE389     -0.0042
    112  CE1        1.1370   38.1770   37.5340 C.ar  389  PHE389     -0.0003
    113  CE2       -0.0090   36.4260   36.3500 C.ar  389  PHE389     -0.0003
    114  CZ         0.9070   36.8280   37.3200 C.ar  389  PHE389     -0.0000
    115  N         -2.5450   42.9610   34.7110 N.am  390  GLY390     -0.1942
    116  CA        -3.3860   43.8180   33.8830 C.3   390  GLY390      0.2014
    117  C         -2.7580   44.3120   32.5950 C.2   390  GLY390      0.2638
    118  O         -1.5490   44.1830   32.3890 O.2   390  GLY390     -0.2714
    119  N         -3.5930   44.8810   31.7260 N.am  391  PHE391     -0.1973
    120  CA        -3.1180   45.5630   30.5220 C.3   391  PHE391      0.1639
    121  C         -2.0720   46.6260   30.8700 C.2   391  PHE391      0.2290
    122  O         -2.0930   47.1960   31.9660 O.2   391  PHE391     -0.2864
    123  CB        -4.2850   46.1980   29.7530 C.3   391  PHE391      0.0560
    124  CG        -5.2210   45.2030   29.1160 C.ar  391  PHE391     -0.0200
    125  CD1       -4.7570   43.9720   28.6550 C.ar  391  PHE391     -0.0042
    126  CD2       -6.5680   45.5190   28.9400 C.ar  391  PHE391     -0.0042
    127  CE1       -5.6250   43.0540   28.0580 C.ar  391  PHE391     -0.0003
    128  CE2       -7.4460   44.6070   28.3360 C.ar  391  PHE391     -0.0003
    129  CZ        -6.9690   43.3700   27.8970 C.ar  391  PHE391     -0.0000
    130  N          1.1260   45.6920   30.8350 N.3   393  GLY393     -0.1225
    131  CA         2.1480   44.8540   31.4690 C.3   393  GLY393      0.1811
    132  C          2.3720   45.1350   32.9450 C.2   393  GLY393      0.2280
    133  O          3.5110   45.2250   33.3960 O.2   393  GLY393     -0.2866
    134  N          1.9090   43.9190   36.8260 N.3   395  ASN395     -0.1240
    135  CA         1.7500   42.6750   37.5750 C.3   395  ASN395      0.1653
    136  C          1.7010   42.8950   39.0800 C.2   395  ASN395      0.2266
    137  O          2.4390   43.7260   39.6140 O.2   395  ASN395     -0.2867
    138  CB         2.8730   41.6940   37.2130 C.3   395  ASN395      0.1155
    139  CG         3.0700   41.5630   35.7060 C.2   395  ASN395      0.2627
    140  OD1        2.1510   41.1850   34.9790 O.2   395  ASN395     -0.2716
    141  ND2        4.2630   41.8970   35.2320 N.am  395  ASN395     -0.0877
@<TRIPOS>BOND
     1    37    36   ar
     2    38    36   ar
     3    36    35    1
     4     7     8    1
     5    53    51    1
     6    35    32    1
     7    58    55    1
     8     8     9    1
     9     8    11    1
    10    51    52    1
    11    51    48    1
    12    43    44    1
    13    43    40    1
    14    44    45    1
    15    32    31    1
    16    32    33    1
    17    39    40    1
    18    39    33   am
    19     9    10    2
    20    47    48    1
    21    47    41   am
    22    54    49   am
    23    54    55    1
    24    48    49    1
    25    40    41    1
    26    49    50    2
    27    33    34    2
    28    55    56    1
    29    41    42    2
    30    45    46    1
    31    85    84    1
    32    85    86    2
    33    56    57    2
    34    56    59   am
    35    84    87    1
    36    84    83    1
    37    87    89    1
    38    87    88    1
    39    90    91    1
    40    62    61    2
    41    59    65    1
    42    59    60    1
    43   129   127   ar
    44   129   128   ar
    45    65    64    1
    46    12    13    1
    47   127   125   ar
    48    61    60    1
    49   128   126   ar
    50    15    14    2
    51   125   124   ar
    52    91    92    1
    53    64    63    1
    54    60    63    1
    55   126   124   ar
    56   124   123    1
    57    13    14    1
    58    13    16    1
    59    21    19   ar
    60    21    22   ar
    61    19    17   ar
    62    92    93    2
    63   123   120    1
    64    22    20   ar
    65    17    16    1
    66    17    18   ar
    67    26    25    2
    68   120   121    1
    69   120   119    1
    70    20    18   ar
    71    27    28    1
    72    27    24    1
    73    25    24    1
    74    30    28   ar
    75   130   131    1
    76   121   122    2
    77    81    80    1
    78    28    29   ar
    79    79    78    2
    80   131   132    1
    81    24    23    1
    82    78    77    1
    83   119   117   am
    84    80    77    1
    85    80    82    1
    86   118   117    2
    87   117   116    1
    88    77    76    1
    89   132   133    2
    90   101   103   ar
    91   101    99   ar
    92     6     5    1
    93   116   115    1
    94    75    73   ar
    95    75    74   ar
    96    98    99    1
    97    98    95    1
    98   103   102   ar
    99    73    71   ar
   100   107   106    2
   101    99   100   ar
   102   115   106   am
   103   106   105    1
   104    97    96    2
   105   108   105    1
   106   108   109    1
   107   140   139    2
   108    74    72   ar
   109    94    95    1
   110     5     2    1
   111   141   139   am
   112   102   100   ar
   113    95    96    1
   114     1     2    1
   115    71    72   ar
   116    71    70    1
   117   111   109   ar
   118   111   113   ar
   119   139   138    1
   120   105   104    1
   121   109   110   ar
   122     2     3    1
   123    68    69    2
   124    68    67    1
   125   113   114   ar
   126    70    67    1
   127   110   112   ar
   128   134   135    1
   129    67    66    1
   130   138   135    1
   131   114   112   ar
   132     3     4    2
   133   135   136    1
   134   136   137    2
