@<TRIPOS>MOLECULE
tmp/2aqdA01.pdb
 92 88 0 0 0
SMALL
GASTEIGER

@<TRIPOS>ATOM
      1  N        -14.9960   -7.5440   -1.7890 N.3   172  HIS172     -0.1241
      2  CA       -15.5990   -6.5440   -2.6650 C.3   172  HIS172      0.1621
      3  C        -17.0150   -6.8880   -3.1000 C.2   172  HIS172      0.2264
      4  O        -17.6310   -6.0990   -3.8300 O.2   172  HIS172     -0.2867
      5  CB       -14.6620   -6.3010   -3.8560 C.3   172  HIS172      0.0745
      6  CG       -13.5610   -5.3410   -3.4970 C.ar  172  HIS172      0.0817
      7  ND1      -12.6180   -4.9140   -4.4030 N.ar  172  HIS172     -0.2268
      8  CD2      -13.3540   -4.5980   -2.3780 C.ar  172  HIS172      0.1154
      9  CE1      -11.8290   -4.0140   -3.8430 C.ar  172  HIS172      0.1986
     10  NE2      -12.2500   -3.8090   -2.6060 N.ar  172  HIS172     -0.2212
     11  N        -19.0060   -6.6770   -0.7840 N.3   174  LEU174     -0.1245
     12  CA       -19.6000   -5.8710    0.2790 C.3   174  LEU174      0.1561
     13  C        -19.6270   -4.3920   -0.1000 C.2   174  LEU174      0.2260
     14  O        -18.7070   -3.8860   -0.7420 O.2   174  LEU174     -0.2867
     15  CB       -18.7770   -5.9940    1.5650 C.3   174  LEU174      0.0270
     16  CG       -18.6590   -7.4000    2.1580 C.3   174  LEU174      0.0019
     17  CD1      -17.6950   -7.3610    3.3380 C.3   174  LEU174      0.0001
     18  CD2      -20.0280   -7.9190    2.5750 C.3   174  LEU174      0.0001
     19  N        -20.0240   -0.6650   -1.4100 N.3   176  LYS176     -0.1231
     20  CA       -19.9890   -0.0890   -2.7520 C.3   176  LYS176      0.1693
     21  C        -18.8200    0.8790   -2.8790 C.2   176  LYS176      0.2592
     22  O        -18.2890    1.3380   -1.8690 O.2   176  LYS176     -0.2718
     23  CB       -21.3030    0.6410   -3.0720 C.3   176  LYS176      0.0285
     24  CG       -21.5520    1.8610   -2.2000 C.3   176  LYS176      0.0035
     25  CD       -22.9260    2.4670   -2.4340 C.3   176  LYS176      0.0206
     26  CE       -23.0520    3.0380   -3.8410 C.3   176  LYS176      0.1093
     27  NZ       -22.4090    4.3740   -3.9550 N.3   176  LYS176     -0.1314
     28  N        -18.4710    1.2040   -4.1230 N.am  177  THR177     -0.1953
     29  CA       -17.6020    2.3530   -4.3660 C.3   177  THR177      0.1897
     30  C        -18.4440    3.6220   -4.3940 C.2   177  THR177      0.2313
     31  O        -19.5940    3.5920   -4.8310 O.2   177  THR177     -0.2863
     32  CB       -16.7990    2.1910   -5.6650 C.3   177  THR177      0.1794
     33  OG1      -17.6850    2.1110   -6.7870 O.3   177  THR177     -0.2208
     34  CG2      -16.0080    0.8870   -5.6450 C.3   177  THR177      0.0378
     35  N        -20.4970    2.5230   -7.4980 N.3   186  GLY186     -0.1210
     36  CA       -21.4530    1.4420   -7.6210 C.3   186  GLY186      0.1940
     37  C        -21.0980    0.2150   -6.7980 C.2   186  GLY186      0.2454
     38  O        -19.9640    0.0770   -6.3210 O.2   186  GLY186     -0.2732
     39  N        -22.0530   -0.6990   -6.6630 N.am  187  PRO187     -0.2717
     40  CA       -21.8680   -1.9390   -5.8940 C.3   187  PRO187      0.1535
     41  C        -21.3390   -3.0690   -6.7680 C.2   187  PRO187      0.2599
     42  O        -21.3770   -3.0030   -8.0020 O.2   187  PRO187     -0.2715
     43  CB       -23.3230   -2.2730   -5.5190 C.3   187  PRO187      0.0310
     44  CG       -24.0810   -1.8660   -6.7450 C.3   187  PRO187      0.0237
     45  CD       -23.4110   -0.6130   -7.2400 C.3   187  PRO187      0.0939
     46  N        -20.8380   -4.1430   -6.1660 N.am  188  GLY188     -0.1955
     47  CA       -20.3150   -5.2510   -6.9450 C.3   188  GLY188      0.1869
     48  C        -21.3030   -6.3820   -7.1160 C.2   188  GLY188      0.2309
     49  O        -21.0040   -7.3870   -7.7650 O.2   188  GLY188     -0.2863
     50  N        -18.9320  -12.0710   -5.3930 N.3   199  PHE199     -0.1241
     51  CA       -17.9600  -11.3090   -6.1900 C.3   199  PHE199      0.1605
     52  C        -17.4410  -12.1570   -7.3510 C.2   199  PHE199      0.2264
     53  O        -17.3110  -11.6880   -8.4760 O.2   199  PHE199     -0.2867
     54  CB       -16.8120  -10.8820   -5.2940 C.3   199  PHE199      0.0534
     55  CG       -15.6120  -10.1990   -5.9070 C.ar  199  PHE199     -0.0203
     56  CD1      -15.6260   -8.8640   -6.2650 C.ar  199  PHE199     -0.0042
     57  CD2      -14.4440  -10.9210   -6.1260 C.ar  199  PHE199     -0.0042
     58  CE1      -14.5120   -8.2560   -6.8270 C.ar  199  PHE199     -0.0003
     59  CE2      -13.3310  -10.3240   -6.6840 C.ar  199  PHE199     -0.0003
     60  CZ       -13.3570   -8.9870   -7.0390 C.ar  199  PHE199     -0.0000
     61  N        -20.5930   -3.1040  -10.6840 N.3   227  MET227     -0.1230
     62  CA       -19.3290   -2.6030  -11.2050 C.3   227  MET227      0.1702
     63  C        -18.1540   -3.4170  -10.6740 C.2   227  MET227      0.2592
     64  O        -18.2750   -4.0730   -9.6420 O.2   227  MET227     -0.2718
     65  CB       -19.1230   -1.1180  -10.9180 C.3   227  MET227      0.0401
     66  CG       -18.9930   -0.7180   -9.4650 C.3   227  MET227      0.0596
     67  SD       -17.3450   -0.9260   -8.7660 S.3   227  MET227     -0.1393
     68  CE       -16.4470    0.3910   -9.5870 C.3   227  MET227      0.0692
     69  N        -17.0590   -3.3860  -11.4190 N.am  228  MET228     -0.1965
     70  CA       -15.7630   -3.8770  -10.9850 C.3   228  MET228      0.1736
     71  C        -14.7020   -2.8010  -11.1760 C.2   228  MET228      0.2616
     72  O        -14.6550   -2.1500  -12.2220 O.2   228  MET228     -0.2715
     73  CB       -15.3820   -5.1340  -11.7730 C.3   228  MET228      0.0427
     74  CG       -16.2740   -6.3370  -11.4820 C.3   228  MET228      0.0599
     75  SD       -15.9340   -7.0080   -9.8350 S.3   228  MET228     -0.1393
     76  CE       -17.4830   -7.8510   -9.5120 C.3   228  MET228      0.0692
     77  N        -13.8350   -2.6210  -10.1790 N.am  229  LEU229     -0.1977
     78  CA       -12.6300   -1.8190  -10.3910 C.3   229  LEU229      0.1596
     79  C        -11.7330   -2.4670  -11.4370 C.2   229  LEU229      0.2287
     80  O        -11.7640   -3.6920  -11.5750 O.2   229  LEU229     -0.2864
     81  CB       -11.8510   -1.7070   -9.0750 C.3   229  LEU229      0.0297
     82  CG       -12.6130   -1.0530   -7.9170 C.3   229  LEU229      0.0022
     83  CD1      -11.9230   -1.3400   -6.5930 C.3   229  LEU229      0.0001
     84  CD2      -12.7480    0.4490   -8.1440 C.3   229  LEU229      0.0001
     85  N        -10.1010   -5.2500   -9.7360 N.3   232  ASP232     -0.1239
     86  CA       -10.9960   -6.3980   -9.5670 C.3   232  ASP232      0.1674
     87  C        -11.0440   -7.2320  -10.8500 C.2   232  ASP232      0.2266
     88  O        -10.9360   -8.4630  -10.8420 O.2   232  ASP232     -0.2867
     89  CB       -12.4170   -5.9320   -9.2470 C.3   232  ASP232      0.1410
     90  CG       -12.5860   -5.3120   -7.8780 C.2   232  ASP232      0.3668
     91  OD1      -11.8660   -5.7100   -6.9340 O.co2 232  ASP232     -0.2456
     92  OD2      -13.4720   -4.4310   -7.7520 O.co2 232  ASP232     -0.2456
@<TRIPOS>BOND
     1    72    71    2
     2    73    74    1
     3    73    70    1
     4    80    79    2
     5    74    75    1
     6    79    78    1
     7    69    70    1
     8    69    63   am
     9    62    65    1
    10    62    61    1
    11    62    63    1
    12    71    70    1
    13    71    77   am
    14    65    66    1
    15    87    88    2
    16    87    86    1
    17    63    64    2
    18    78    77    1
    19    78    81    1
    20    75    76    1
    21    85    86    1
    22    68    67    1
    23    86    89    1
    24    66    67    1
    25    89    90    1
    26    81    82    1
    27    53    52    2
    28    84    82    1
    29    42    41    2
    30    82    83    1
    31    90    92   ar
    32    90    91   ar
    33    49    48    2
    34    36    35    1
    35    36    37    1
    36    52    51    1
    37    45    44    1
    38    45    39    1
    39    48    47    1
    40    60    58   ar
    41    60    59   ar
    42    47    46    1
    43    58    56   ar
    44    37    39   am
    45    37    38    2
    46    33    32    1
    47    41    46   am
    48    41    40    1
    49    44    43    1
    50    59    57   ar
    51    39    40    1
    52    56    55   ar
    53    51    50    1
    54    51    54    1
    55    57    55   ar
    56    55    54    1
    57    40    43    1
    58    32    34    1
    59    32    29    1
    60    31    30    2
    61     7     9   ar
    62     7     6   ar
    63    30    29    1
    64    29    28    1
    65    28    21   am
    66    27    26    1
    67     5     6    1
    68     5     2    1
    69     9    10   ar
    70    26    25    1
    71     4     3    2
    72     6     8   ar
    73     3     2    1
    74    23    20    1
    75    23    24    1
    76    21    20    1
    77    21    22    2
    78    20    19    1
    79     2     1    1
    80    10     8   ar
    81    25    24    1
    82    11    12    1
    83    14    13    2
    84    13    12    1
    85    12    15    1
    86    15    16    1
    87    16    18    1
    88    16    17    1
