@<TRIPOS>MOLECULE
tmp/2aqjA00.pdb
 153 151 0 0 0
SMALL
GASTEIGER

@<TRIPOS>ATOM
      1  N          6.6860    2.2300   19.8820 N.3    51  ILE51      -0.1231
      2  CA         5.7910    2.5540   18.7750 C.3    51  ILE51       0.1678
      3  C          5.5500    1.2520   17.9580 C.2    51  ILE51       0.2434
      4  O          6.2480    0.2730   18.1640 O.2    51  ILE51      -0.2733
      5  CB         6.3110    3.7240   17.9190 C.3    51  ILE51       0.0265
      6  CG1        7.6680    3.3780   17.2690 C.3    51  ILE51       0.0019
      7  CG2        6.4520    5.0360   18.8080 C.3    51  ILE51       0.0020
      8  CD1        8.1990    4.4880   16.3590 C.3    51  ILE51       0.0001
      9  N          4.4940    1.2100   17.1220 N.am   52  PRO52      -0.2718
     10  CA         4.1010   -0.0440   16.4970 C.3    52  PRO52       0.1535
     11  C          5.1910   -0.7590   15.6890 C.2    52  PRO52       0.2599
     12  O          5.2020   -1.9850   15.6540 O.2    52  PRO52      -0.2715
     13  CB         2.8840    0.3560   15.6320 C.3    52  PRO52       0.0310
     14  CG         2.2710    1.4430   16.4630 C.3    52  PRO52       0.0237
     15  CD         3.5060    2.2590   16.8700 C.3    52  PRO52       0.0939
     16  N          6.1260   -0.0210   15.1020 N.am   53  SER53      -0.1950
     17  CA         7.1970   -0.6690   14.3280 C.3    53  SER53       0.1924
     18  C          8.0550   -1.6200   15.1570 C.2    53  SER53       0.2314
     19  O          8.7200   -2.4860   14.6000 O.2    53  SER53      -0.2863
     20  CB         8.0480    0.3730   13.6030 C.3    53  SER53       0.2116
     21  OG         8.4920    1.3660   14.5350 O.3    53  SER53      -0.2180
     22  N          0.0650    0.8570   24.8900 N.3    78  LYS78      -0.1245
     23  CA         0.2430    2.2900   24.6500 C.3    78  LYS78       0.1561
     24  C         -0.4620    2.6450   23.3510 C.2    78  LYS78       0.2260
     25  O         -0.0830    2.1520   22.2710 O.2    78  LYS78      -0.2867
     26  CB         1.7120    2.6390   24.4830 C.3    78  LYS78       0.0271
     27  CG         1.9510    4.1120   24.2140 C.3    78  LYS78       0.0035
     28  CD         3.3730    4.3460   23.7450 C.3    78  LYS78       0.0206
     29  CE         3.5360    5.7580   23.2850 C.3    78  LYS78       0.1093
     30  NZ         4.8660    5.9530   22.6330 N.3    78  LYS78      -0.1314
     31  N          0.4510    9.2380   23.0590 N.3    81  ILE81      -0.1245
     32  CA         0.9970   10.0290   24.1310 C.3    81  ILE81       0.1561
     33  C         -0.0100   11.1310   24.4200 C.2    81  ILE81       0.2260
     34  O         -0.5150   11.7660   23.4890 O.2    81  ILE81      -0.2867
     35  CB         2.3580   10.6450   23.7090 C.3    81  ILE81       0.0252
     36  CG1        3.3480    9.5270   23.2960 C.3    81  ILE81       0.0019
     37  CG2        2.9050   11.5680   24.8160 C.3    81  ILE81       0.0019
     38  CD1        4.7130   10.0690   22.7710 C.3    81  ILE81       0.0001
     39  N         -1.5970   12.6010   21.0850 N.3   100  HIS100     -0.1226
     40  CA        -0.9540   12.2860   19.8260 C.3   100  HIS100      0.1752
     41  C         -1.2050   10.7870   19.6140 C.2   100  HIS100      0.2596
     42  O         -0.6210    9.9750   20.3200 O.2   100  HIS100     -0.2718
     43  CB         0.5660   12.5860   19.9240 C.3   100  HIS100      0.0759
     44  CG         1.2970   12.3160   18.6490 C.ar  100  HIS100      0.0818
     45  ND1        2.6630   12.1190   18.5950 N.ar  100  HIS100     -0.2268
     46  CD2        0.8420   12.1830   17.3790 C.ar  100  HIS100      0.1154
     47  CE1        3.0160   11.8720   17.3370 C.ar  100  HIS100      0.1986
     48  NE2        1.9340   11.9360   16.5770 N.ar  100  HIS100     -0.2212
     49  N         -2.0790   10.4390   18.6530 N.am  101  LEU101     -0.1966
     50  CA        -2.5040    9.0500   18.4150 C.3   101  LEU101      0.1728
     51  C         -1.6480    8.3900   17.3560 C.2   101  LEU101      0.2616
     52  O         -1.1780    9.0490   16.4240 O.2   101  LEU101     -0.2715
     53  CB        -3.9640    8.9920   17.9280 C.3   101  LEU101      0.0311
     54  CG        -4.6640    9.6640   19.1200 C.3   101  LEU101      0.0022
     55  CD1       -5.5190   10.8120   18.7490 C.3   101  LEU101      0.0001
     56  CD2       -5.2850    8.7410   20.1340 C.3   101  LEU101      0.0001
     57  N         -1.4800    7.0780   17.4790 N.am  102  PHE102     -0.1960
     58  CA        -0.9180    6.3030   16.3720 C.3   102  PHE102      0.1771
     59  C         -1.9380    6.2150   15.2400 C.2   102  PHE102      0.2620
     60  O         -3.1390    6.2760   15.4790 O.2   102  PHE102     -0.2715
     61  CB        -0.5890    4.8820   16.8370 C.3   102  PHE102      0.0574
     62  CG         0.5230    4.8280   17.8520 C.ar  102  PHE102     -0.0200
     63  CD1        1.8040    5.2910   17.5300 C.ar  102  PHE102     -0.0042
     64  CD2        0.3000    4.2950   19.1070 C.ar  102  PHE102     -0.0042
     65  CE1        2.8540    5.2380   18.5040 C.ar  102  PHE102     -0.0003
     66  CE2        1.3240    4.2250   20.0720 C.ar  102  PHE102     -0.0003
     67  CZ         2.5880    4.7120   19.7840 C.ar  102  PHE102     -0.0000
     68  N         -1.4640    6.0230   14.0100 N.am  103  GLY103     -0.1954
     69  CA        -2.3800    5.7590   12.9030 C.3   103  GLY103      0.1869
     70  C         -2.6860    6.9700   12.0640 C.2   103  GLY103      0.2309
     71  O         -2.4060    8.0890   12.4570 O.2   103  GLY103     -0.2863
     72  N          8.7920   11.6930   22.1410 N.3   345  GLU345     -0.1245
     73  CA         7.9570   10.9850   21.1550 C.3   345  GLU345      0.1567
     74  C          8.4210    9.5380   20.9850 C.2   345  GLU345      0.2260
     75  O          8.2390    8.9530   19.9130 O.2   345  GLU345     -0.2867
     76  CB         7.9460   11.7460   19.8060 C.3   345  GLU345      0.0388
     77  CG         7.1220   13.0910   19.8580 C.3   345  GLU345      0.1160
     78  CD         5.6020   12.8700   19.9100 C.2   345  GLU345      0.3649
     79  OE1        5.1390   11.7190   19.7710 O.co2 345  GLU345     -0.2457
     80  OE2        4.8500   13.8630   20.0790 O.co2 345  GLU345     -0.2457
     81  N         11.1870    7.6910   20.6060 N.3   347  THR347     -0.1218
     82  CA        11.9610    7.3300   19.3960 C.3   347  THR347      0.1862
     83  C         13.2370    6.5580   19.7160 C.2   347  THR347      0.2287
     84  O         13.9270    6.1070   18.8140 O.2   347  THR347     -0.2866
     85  CB        12.3220    8.5910   18.5600 C.3   347  THR347      0.1770
     86  OG1       12.8380    9.5990   19.4370 O.3   347  THR347     -0.2211
     87  CG2       11.0790    9.1310   17.8630 C.3   347  THR347      0.0375
     88  N          0.6150    0.9640    6.1430 N.3   442  TYR442     -0.1227
     89  CA         1.7030    1.8100    6.5920 C.3   442  TYR442      0.1736
     90  C          2.6700    1.0470    7.4930 C.2   442  TYR442      0.2595
     91  O          3.9000    1.0970    7.2950 O.2   442  TYR442     -0.2718
     92  CB         1.1110    2.9980    7.3370 C.3   442  TYR442      0.0548
     93  CG         2.1310    3.9770    7.8700 C.ar  442  TYR442     -0.0200
     94  CD1        2.7360    4.9220    7.0270 C.ar  442  TYR442     -0.0009
     95  CD2        2.4620    3.9920    9.2360 C.ar  442  TYR442     -0.0009
     96  CE1        3.6820    5.8450    7.5320 C.ar  442  TYR442      0.0417
     97  CE2        3.3940    4.9000    9.7350 C.ar  442  TYR442      0.0417
     98  CZ         3.9860    5.8310    8.8790 C.ar  442  TYR442      0.1957
     99  OH         4.8770    6.7390    9.4000 O.3   442  TYR442     -0.2866
    100  N          2.1180    0.3530    8.4930 N.am  443  TYR443     -0.1976
    101  CA         2.9590   -0.2540    9.5200 C.3   443  TYR443      0.1639
    102  C          3.5680   -1.5600    9.0510 C.2   443  TYR443      0.2290
    103  O          4.4460   -2.1060    9.7320 O.2   443  TYR443     -0.2864
    104  CB         2.1780   -0.4630   10.8270 C.3   443  TYR443      0.0560
    105  CG         1.9170    0.8210   11.6020 C.ar  443  TYR443     -0.0198
    106  CD1        2.9670    1.6230   12.0620 C.ar  443  TYR443     -0.0009
    107  CD2        0.6060    1.2370   11.8710 C.ar  443  TYR443     -0.0009
    108  CE1        2.7170    2.7940   12.8070 C.ar  443  TYR443      0.0417
    109  CE2        0.3480    2.4180   12.5840 C.ar  443  TYR443      0.0417
    110  CZ         1.4080    3.1840   13.0510 C.ar  443  TYR443      0.1957
    111  OH         1.1520    4.3450   13.7540 O.3   443  TYR443     -0.2866
    112  N          7.4090    3.8340    5.8500 N.3   449  GLU449     -0.1245
    113  CA         7.3380    4.4920    7.1580 C.3   449  GLU449      0.1567
    114  C          8.6820    5.1680    7.5400 C.2   449  GLU449      0.2260
    115  O          8.6950    6.2900    8.0430 O.2   449  GLU449     -0.2867
    116  CB         6.8890    3.5050    8.2550 C.3   449  GLU449      0.0388
    117  CG         7.0600    4.1300    9.6450 C.3   449  GLU449      0.1160
    118  CD         6.4900    3.3140   10.7750 C.2   449  GLU449      0.3649
    119  OE1        6.4270    2.0520   10.6730 O.co2 449  GLU449     -0.2457
    120  OE2        6.1410    3.9600   11.7910 O.co2 449  GLU449     -0.2457
    121  N          7.9920    9.2020    8.2780 N.3   453  PHE453     -0.1227
    122  CA         7.8030    8.7340    9.6470 C.3   453  PHE453      0.1736
    123  C          6.7670    9.5880   10.3890 C.2   453  PHE453      0.2595
    124  O          5.9910    9.0750   11.2300 O.2   453  PHE453     -0.2718
    125  CB         9.1570    8.7820   10.3560 C.3   453  PHE453      0.0547
    126  CG         9.1540    8.1190   11.6820 C.ar  453  PHE453     -0.0202
    127  CD1        8.9350    6.7370   11.7810 C.ar  453  PHE453     -0.0042
    128  CD2        9.3630    8.8630   12.8270 C.ar  453  PHE453     -0.0042
    129  CE1        8.9430    6.1250   13.0440 C.ar  453  PHE453     -0.0003
    130  CE2        9.3830    8.2600   14.0980 C.ar  453  PHE453     -0.0003
    131  CZ         9.1730    6.8940   14.1990 C.ar  453  PHE453     -0.0000
    132  N          6.7270   10.8820   10.0570 N.am  454  TRP454     -0.1976
    133  CA         5.7240   11.7660   10.6670 C.3   454  TRP454      0.1640
    134  C          4.7940   12.2050    9.5480 C.2   454  TRP454      0.2290
    135  O          5.2140   12.8410    8.5630 O.2   454  TRP454     -0.2864
    136  CB         6.3690   12.9960   11.2450 C.3   454  TRP454      0.0576
    137  CG         7.4660   12.7000   12.1910 C.ar  454  TRP454      0.0006
    138  CD1        8.8070   12.9150   11.9910 C.ar  454  TRP454      0.0946
    139  CD2        7.3290   12.1260   13.4840 C.ar  454  TRP454      0.0152
    140  NE1        9.5140   12.5220   13.1140 N.ar  454  TRP454     -0.2442
    141  CE2        8.6310   12.0390   14.0430 C.ar  454  TRP454      0.0810
    142  CE3        6.2310   11.6710   14.2330 C.ar  454  TRP454      0.0012
    143  CZ2        8.8730   11.5120   15.3080 C.ar  454  TRP454      0.0191
    144  CZ3        6.4810   11.1680   15.5350 C.ar  454  TRP454      0.0001
    145  CH2        7.8030   11.1050   16.0460 C.ar  454  TRP454      0.0015
    146  N          0.1930   13.2900   12.4560 N.3   458  ASN458     -0.1240
    147  CA         1.1490   13.4670   13.5630 C.3   458  ASN458      0.1653
    148  C          1.4450   14.9480   13.8290 C.2   458  ASN458      0.2266
    149  O          1.3380   15.4290   14.9850 O.2   458  ASN458     -0.2867
    150  CB         2.4640   12.7360   13.2610 C.3   458  ASN458      0.1155
    151  CG         2.2670   11.2520   13.0460 C.2   458  ASN458      0.2627
    152  OD1        2.4670   10.7350   11.9350 O.2   458  ASN458     -0.2716
    153  ND2        1.8450   10.5610   14.0860 N.am  458  ASN458     -0.0877
@<TRIPOS>BOND
     1   112   113    1
     2    88    89    1
     3    89    92    1
     4    89    90    1
     5    94    96   ar
     6    94    93   ar
     7   113   114    1
     8   113   116    1
     9    91    90    2
    10    92    93    1
    11    90   100   am
    12    96    98   ar
    13   114   115    2
    14    93    95   ar
    15   116   117    1
    16   121   122    1
    17   100   101    1
    18   135   134    2
    19    98    99    1
    20    98    97   ar
    21   102   101    1
    22   102   103    2
    23    95    97   ar
    24   101   104    1
    25   134   133    1
    26   117   118    1
    27   122   125    1
    28   122   123    1
    29   132   123   am
    30   132   133    1
    31   125   126    1
    32   123   124    2
    33   133   136    1
    34   119   118   ar
    35   118   120   ar
    36   104   105    1
    37   136   137    1
    38   105   107   ar
    39   105   106   ar
    40   126   127   ar
    41   126   128   ar
    42   127   129   ar
    43   107   109   ar
    44   152   151    2
    45   138   137   ar
    46   138   140   ar
    47   106   108   ar
    48    70    71    2
    49    70    69    1
    50   137   139   ar
    51   146   147    1
    52   109   110   ar
    53   108   110   ar
    54   128   130   ar
    55    69    68    1
    56   129   131   ar
    57   151   150    1
    58   151   153   am
    59   110   111    1
    60   140   141   ar
    61   150   147    1
    62   139   141   ar
    63   139   142   ar
    64   147   148    1
    65    20    17    1
    66    20    21    1
    67   148   149    2
    68    68    59   am
    69   141   143   ar
    70   130   131   ar
    71   142   144   ar
    72    17    16    1
    73    17    18    1
    74    19    18    2
    75    16    11   am
    76    59    60    2
    77    59    58    1
    78   143   145   ar
    79   144   145   ar
    80    13    14    1
    81    13    10    1
    82    12    11    2
    83    11    10    1
    84     8     6    1
    85    58    61    1
    86    58    57    1
    87    52    51    2
    88    14    15    1
    89    10     9    1
    90    48    47   ar
    91    48    46   ar
    92    61    62    1
    93    15     9    1
    94     9     3   am
    95     6     5    1
    96    47    45   ar
    97    51    57   am
    98    51    50    1
    99    46    44   ar
   100    63    62   ar
   101    63    65   ar
   102    62    64   ar
   103    87    85    1
   104     5     2    1
   105     5     7    1
   106    53    50    1
   107    53    54    1
   108     3     4    2
   109     3     2    1
   110    50    49    1
   111    65    67   ar
   112    85    82    1
   113    85    86    1
   114    45    44   ar
   115    44    43    1
   116    49    41   am
   117    55    54    1
   118     2     1    1
   119    84    83    2
   120    64    66   ar
   121    54    56    1
   122    82    83    1
   123    82    81    1
   124    41    40    1
   125    41    42    2
   126    79    78   ar
   127    67    66   ar
   128    76    77    1
   129    76    73    1
   130    40    43    1
   131    40    39    1
   132    77    78    1
   133    78    80   ar
   134    75    74    2
   135    74    73    1
   136    73    72    1
   137    25    24    2
   138    30    29    1
   139    38    36    1
   140    31    32    1
   141    29    28    1
   142    36    35    1
   143    24    23    1
   144    34    33    2
   145    35    32    1
   146    35    37    1
   147    28    27    1
   148    32    33    1
   149    27    26    1
   150    26    23    1
   151    23    22    1
