@<TRIPOS>MOLECULE
tmp/2aqxA00.pdb
 210 201 0 0 0
SMALL
GASTEIGER

@<TRIPOS>ATOM
      1  N          6.3900   47.7520   26.5120 N.3    17  TRP17      -0.1227
      2  CA         4.9660   47.4870   26.2960 C.3    17  TRP17       0.1737
      3  C          4.7280   46.7110   24.9890 C.2    17  TRP17       0.2595
      4  O          5.5260   46.7890   24.0330 O.2    17  TRP17      -0.2718
      5  CB         4.1830   48.8040   26.2500 C.3    17  TRP17       0.0564
      6  CG         2.7260   48.5800   26.4610 C.ar   17  TRP17       0.0003
      7  CD1        2.1230   48.0900   27.6050 C.ar   17  TRP17       0.0946
      8  CD2        1.6770   48.7920   25.5160 C.ar   17  TRP17       0.0152
      9  NE1        0.7600   48.0030   27.4210 N.ar   17  TRP17      -0.2442
     10  CE2        0.4580   48.4350   26.1530 C.ar   17  TRP17       0.0810
     11  CE3        1.6370   49.2590   24.1920 C.ar   17  TRP17       0.0012
     12  CZ2       -0.7780   48.5410   25.5090 C.ar   17  TRP17       0.0191
     13  CZ3        0.4060   49.3650   23.5580 C.ar   17  TRP17       0.0001
     14  CH2       -0.7810   49.0080   24.2160 C.ar   17  TRP17       0.0015
     15  N          3.6040   46.0000   24.9470 N.am   18  ILE18      -0.1966
     16  CA         3.2700   45.1790   23.7960 C.3    18  ILE18       0.1727
     17  C          1.9460   45.6060   23.1630 C.2    18  ILE18       0.2616
     18  O          0.9100   45.6260   23.8300 O.2    18  ILE18      -0.2715
     19  CB         3.2590   43.6910   24.1560 C.3    18  ILE18       0.0290
     20  CG1        4.5840   43.3100   24.8090 C.3    18  ILE18       0.0022
     21  CG2        3.0230   42.8480   22.9160 C.3    18  ILE18       0.0023
     22  CD1        4.4810   42.0540   25.6710 C.3    18  ILE18       0.0001
     23  N          2.0080   45.9920   21.8840 N.am   19  GLN19      -0.1963
     24  CA         0.8210   46.2980   21.1090 C.3    19  GLN19       0.1733
     25  C          0.6390   45.2440   20.0200 C.2    19  GLN19       0.2616
     26  O          1.3930   45.2250   19.0470 O.2    19  GLN19      -0.2715
     27  CB         0.9250   47.6880   20.4840 C.3    19  GLN19       0.0408
     28  CG        -0.4470   48.2060   20.0160 C.3    19  GLN19       0.0908
     29  CD        -0.4390   49.6320   19.4460 C.2    19  GLN19       0.2608
     30  OE1        0.2920   50.5370   19.9260 O.2    19  GLN19      -0.2717
     31  NE2       -1.2850   49.8500   18.4210 N.am   19  GLN19      -0.0878
     32  N         -0.3230   44.3440   20.1950 N.am   20  LEU20      -0.1963
     33  CA        -0.6360   43.3890   19.1340 C.3    20  LEU20       0.1728
     34  C         -1.4600   43.9990   17.9500 C.2    20  LEU20       0.2616
     35  O         -0.9390   44.1050   16.8470 O.2    20  LEU20      -0.2715
     36  CB        -1.2240   42.0900   19.7160 C.3    20  LEU20       0.0311
     37  CG        -0.2460   41.2910   20.6110 C.3    20  LEU20       0.0022
     38  CD1       -0.9340   40.1280   21.2540 C.3    20  LEU20       0.0001
     39  CD2        0.9820   40.7880   19.8750 C.3    20  LEU20       0.0001
     40  N         -2.7040   44.4260   18.1750 N.am   21  ALA21      -0.1963
     41  CA        -3.5290   45.0240   17.1080 C.3    21  ALA21       0.1728
     42  C         -3.4310   46.5620   17.1470 C.2    21  ALA21       0.2617
     43  O         -2.5630   47.0690   17.7890 O.2    21  ALA21      -0.2715
     44  CB        -4.9880   44.5390   17.2380 C.3    21  ALA21       0.0334
     45  N         -4.3110   47.2920   16.4610 N.am   22  GLY22      -0.1940
     46  CA        -4.3400   48.7630   16.5140 C.3    22  GLY22       0.2014
     47  C         -3.3450   49.5140   15.6300 C.2    22  GLY22       0.2638
     48  O         -2.4420   48.9350   15.0660 O.2    22  GLY22      -0.2714
     49  N         -3.5130   50.8220   15.4890 N.am   23  HIS23      -0.1973
     50  CA        -2.5570   51.6210   14.6940 C.3    23  HIS23       0.1656
     51  C         -1.4370   52.2700   15.5470 C.2    23  HIS23       0.2291
     52  O         -1.5390   52.3840   16.7830 O.2    23  HIS23      -0.2864
     53  CB        -3.2810   52.6890   13.8440 C.3    23  HIS23       0.0771
     54  CG        -4.3290   52.1310   12.9250 C.ar   23  HIS23       0.0820
     55  ND1       -4.2510   50.8630   12.3820 N.ar   23  HIS23      -0.2267
     56  CD2       -5.4840   52.6690   12.4620 C.ar   23  HIS23       0.1154
     57  CE1       -5.3140   50.6390   11.6300 C.ar   23  HIS23       0.1986
     58  NE2       -6.0720   51.7230   11.6530 N.ar   23  HIS23      -0.2212
     59  N         -1.7490   54.9580   18.8200 N.3    26  SER26      -0.1202
     60  CA        -3.0360   54.7580   19.4410 C.3    26  SER26       0.2020
     61  C         -2.8220   54.6780   20.9440 C.2    26  SER26       0.2618
     62  O         -3.7660   54.8130   21.7210 O.2    26  SER26      -0.2717
     63  CB        -3.6830   53.4630   18.9630 C.3    26  SER26       0.2103
     64  OG        -3.9570   53.4830   17.5780 O.3    26  SER26      -0.2182
     65  N         -1.5820   54.4340   21.3540 N.am   27  PHE27      -0.1975
     66  CA        -1.2730   54.2550   22.7750 C.3    27  PHE27       0.1639
     67  C         -0.0030   54.9880   23.1980 C.2    27  PHE27       0.2290
     68  O          0.9280   55.1290   22.4060 O.2    27  PHE27      -0.2864
     69  CB        -1.1070   52.7670   23.1040 C.3    27  PHE27       0.0560
     70  CG        -2.3600   51.9860   23.0180 C.ar   27  PHE27      -0.0200
     71  CD1       -2.7640   51.4210   21.8200 C.ar   27  PHE27      -0.0042
     72  CD2       -3.1460   51.7930   24.1410 C.ar   27  PHE27      -0.0042
     73  CE1       -3.9630   50.6620   21.7530 C.ar   27  PHE27      -0.0003
     74  CE2       -4.3230   51.0340   24.0850 C.ar   27  PHE27      -0.0003
     75  CZ        -4.7420   50.4760   22.9110 C.ar   27  PHE27      -0.0000
     76  N         -1.6020   53.4490   31.1950 N.3    35  ILE35      -0.1245
     77  CA        -1.4180   53.5860   29.7580 C.3    35  ILE35       0.1561
     78  C         -2.5040   54.5490   29.2710 C.2    35  ILE35       0.2260
     79  O         -3.5670   54.6530   29.8900 O.2    35  ILE35      -0.2867
     80  CB        -1.4770   52.1380   29.1150 C.3    35  ILE35       0.0252
     81  CG1       -0.3010   51.8770   28.2280 C.3    35  ILE35       0.0019
     82  CG2       -2.8530   51.6480   28.5370 C.3    35  ILE35       0.0019
     83  CD1        0.5840   50.9410   28.9060 C.3    35  ILE35       0.0001
     84  N         -4.8400   55.5740   25.8480 N.3    37  LYS37      -0.1245
     85  CA        -5.2780   55.0710   24.5540 C.3    37  LYS37       0.1561
     86  C         -5.9890   56.2470   23.9050 C.2    37  LYS37       0.2260
     87  O         -6.6960   57.0030   24.6040 O.2    37  LYS37      -0.2867
     88  CB        -6.2250   53.8740   24.7000 C.3    37  LYS37       0.0271
     89  CG        -6.9530   53.4850   23.3980 C.3    37  LYS37       0.0035
     90  CD        -7.8030   52.2030   23.4890 C.3    37  LYS37       0.0206
     91  CE        -8.3980   51.9010   22.1060 C.3    37  LYS37       0.1093
     92  NZ        -9.0180   50.5090   21.9520 N.3    37  LYS37      -0.1314
     93  N         -9.7430   46.3760   31.9410 N.3    60  PRO60      -0.2116
     94  CA        -8.7450   47.2820   32.4940 C.3    60  PRO60       0.1372
     95  C         -9.4220   48.4140   33.2570 C.2    60  PRO60       0.2244
     96  O        -10.3750   49.0050   32.7390 O.2    60  PRO60      -0.2868
     97  CB        -8.0710   47.8510   31.2330 C.3    60  PRO60       0.0268
     98  CG        -8.3010   46.8920   30.2180 C.3    60  PRO60       0.0207
     99  CD        -9.6250   46.2980   30.4700 C.3    60  PRO60       0.0892
    100  N         -5.9850   54.1520   31.2640 N.3    76  MET76      -0.1230
    101  CA        -6.3300   52.7970   31.6920 C.3    76  MET76       0.1702
    102  C         -5.1270   51.9870   32.2080 C.2    76  MET76       0.2592
    103  O         -3.9610   52.3600   31.9790 O.2    76  MET76      -0.2718
    104  CB        -7.1160   52.0730   30.5860 C.3    76  MET76       0.0401
    105  CG        -6.3700   51.0710   29.7350 C.3    76  MET76       0.0596
    106  SD        -7.0100   50.8880   28.0350 S.3    76  MET76      -0.1393
    107  CE        -7.2530   49.1420   27.9200 C.3    76  MET76       0.0692
    108  N         -5.4070   50.9020   32.9280 N.am   77  ASP77      -0.1960
    109  CA        -4.3560   50.1160   33.5550 C.3    77  ASP77       0.1840
    110  C         -3.5930   49.3870   32.5070 C.2    77  ASP77       0.2622
    111  O         -4.1700   48.9380   31.5480 O.2    77  ASP77      -0.2715
    112  CB        -4.9450   49.0750   34.5020 C.3    77  ASP77       0.1450
    113  CG        -5.0610   49.5680   35.9360 C.2    77  ASP77       0.3671
    114  OD1       -4.8910   50.7770   36.2430 O.co2  77  ASP77      -0.2456
    115  OD2       -5.3380   48.7160   36.7780 O.co2  77  ASP77      -0.2456
    116  N         -2.2970   49.2470   32.6900 N.am   78  ASP78      -0.1957
    117  CA        -1.5810   48.3660   31.8050 C.3    78  ASP78       0.1840
    118  C         -1.6300   46.9480   32.3200 C.2    78  ASP78       0.2622
    119  O         -0.9280   46.5990   33.2660 O.2    78  ASP78      -0.2715
    120  CB        -0.1140   48.7690   31.5690 C.3    78  ASP78       0.1450
    121  CG         0.6770   47.6290   30.8960 C.2    78  ASP78       0.3671
    122  OD1        0.0150   46.8290   30.1670 O.co2  78  ASP78      -0.2456
    123  OD2        1.9120   47.5010   31.1230 O.co2  78  ASP78      -0.2456
    124  N         -2.4140   46.1270   31.6340 N.am   79  LEU79      -0.1963
    125  CA        -2.6330   44.7250   32.0270 C.3    79  LEU79       0.1728
    126  C         -1.3740   43.8690   32.0580 C.2    79  LEU79       0.2616
    127  O         -1.3910   42.7450   32.5550 O.2    79  LEU79      -0.2715
    128  CB        -3.6730   44.0960   31.1350 C.3    79  LEU79       0.0311
    129  CG        -5.0580   44.7440   31.1970 C.3    79  LEU79       0.0022
    130  CD1       -5.9150   44.0560   30.1510 C.3    79  LEU79       0.0001
    131  CD2       -5.7410   44.6690   32.6070 C.3    79  LEU79       0.0001
    132  N         -0.2800   44.4380   31.5830 N.am   80  LEU80      -0.1977
    133  CA         1.0410   43.7900   31.5710 C.3    80  LEU80       0.1596
    134  C          1.7950   44.0430   32.8800 C.2    80  LEU80       0.2287
    135  O          2.7690   43.3350   33.1840 O.2    80  LEU80      -0.2864
    136  CB         1.8830   44.3600   30.4150 C.3    80  LEU80       0.0297
    137  CG         1.9670   43.7410   29.0220 C.3    80  LEU80       0.0022
    138  CD1        0.6660   43.1720   28.4950 C.3    80  LEU80       0.0001
    139  CD2        2.5720   44.7090   28.0460 C.3    80  LEU80       0.0001
    140  N          1.5620   37.2980   25.2350 N.3    88  VAL88      -0.1245
    141  CA         0.2830   37.9650   25.0960 C.3    88  VAL88       0.1561
    142  C         -0.4210   37.4200   23.8690 C.2    88  VAL88       0.2260
    143  O          0.2000   37.2240   22.8270 O.2    88  VAL88      -0.2867
    144  CB         0.5010   39.4880   24.9680 C.3    88  VAL88       0.0252
    145  CG1       -0.7830   40.2290   25.1120 C.3    88  VAL88       0.0019
    146  CG2        1.4930   39.9720   26.0090 C.3    88  VAL88       0.0019
    147  N         -4.1310   38.2470   21.6770 N.3    90  ASP90      -0.1239
    148  CA        -5.3480   39.0420   21.4550 C.3    90  ASP90       0.1674
    149  C         -6.3130   38.2240   20.5780 C.2    90  ASP90       0.2266
    150  O         -5.9950   37.9450   19.4140 O.2    90  ASP90      -0.2867
    151  CB        -4.9670   40.3770   20.7770 C.3    90  ASP90       0.1410
    152  CG        -6.1720   41.3020   20.4950 C.2    90  ASP90       0.3668
    153  OD1       -7.2410   40.8190   20.0340 O.co2  90  ASP90      -0.2456
    154  OD2       -6.0280   42.5410   20.6850 O.co2  90  ASP90      -0.2456
    155  N        -10.0170   38.4830   18.8870 N.3    92  LYS92      -0.1245
    156  CA       -11.1800   39.3160   18.5810 C.3    92  LYS92       0.1561
    157  C        -12.4490   38.4930   18.5520 C.2    92  LYS92       0.2260
    158  O        -12.5670   37.5520   17.7630 O.2    92  LYS92      -0.2867
    159  CB       -11.0120   40.0380   17.2530 C.3    92  LYS92       0.0271
    160  CG       -12.1290   41.0840   16.9860 C.3    92  LYS92       0.0035
    161  CD       -11.6990   42.0640   15.8520 C.3    92  LYS92       0.0206
    162  CE       -10.8060   43.1990   16.3490 C.3    92  LYS92       0.1093
    163  NZ       -10.4330   44.1020   15.2010 N.3    92  LYS92      -0.1314
    164  N        -16.0220   44.0680   18.0910 N.3   225  GLY225     -0.1225
    165  CA       -14.6850   44.5810   17.8810 C.3   225  GLY225      0.1811
    166  C        -13.8400   44.5150   19.1130 C.2   225  GLY225      0.2280
    167  O        -12.7170   44.9760   19.0960 O.2   225  GLY225     -0.2866
    168  N        -11.8980   42.3970   22.3850 N.3   227  SER227     -0.1217
    169  CA       -11.0230   41.2520   22.3460 C.3   227  SER227      0.1889
    170  C        -10.9780   40.6220   23.6880 C.2   227  SER227      0.2288
    171  O        -11.3870   41.2330   24.6670 O.2   227  SER227     -0.2866
    172  CB        -9.6160   41.6490   21.9140 C.3   227  SER227      0.2089
    173  OG        -9.5940   42.0310   20.5440 O.3   227  SER227     -0.2183
    174  N         -7.9330   39.3540   25.8950 N.3   229  LEU229     -0.1245
    175  CA        -6.5030   39.4830   25.8800 C.3   229  LEU229      0.1561
    176  C         -5.9240   38.4710   26.8800 C.2   229  LEU229      0.2260
    177  O         -6.2180   38.5290   28.0610 O.2   229  LEU229     -0.2867
    178  CB        -6.1270   40.9320   26.1780 C.3   229  LEU229      0.0270
    179  CG        -4.6540   41.3000   26.0590 C.3   229  LEU229      0.0019
    180  CD1       -4.2420   41.3660   24.6150 C.3   229  LEU229      0.0001
    181  CD2       -4.3710   42.6040   26.7640 C.3   229  LEU229      0.0001
    182  N        -11.1420   43.6520   26.4200 N.3   243  ILE243     -0.1231
    183  CA       -10.5650   44.9300   26.0160 C.3   243  ILE243      0.1692
    184  C        -11.1960   45.5030   24.7270 C.2   243  ILE243      0.2592
    185  O        -11.8540   44.7850   23.9500 O.2   243  ILE243     -0.2718
    186  CB        -9.0190   44.8260   25.8720 C.3   243  ILE243      0.0266
    187  CG1       -8.6370   43.9780   24.6490 C.3   243  ILE243      0.0019
    188  CG2       -8.3470   44.3180   27.1770 C.3   243  ILE243      0.0020
    189  CD1       -7.2820   44.4050   24.0480 C.3   243  ILE243      0.0001
    190  N        -10.9950   46.8010   24.5210 N.am  244  ASP244     -0.1974
    191  CA       -11.3550   47.4850   23.2850 C.3   244  ASP244      0.1709
    192  C        -12.8330   47.6040   23.0060 C.2   244  ASP244      0.2293
    193  O        -13.4260   46.7490   22.3380 O.2   244  ASP244     -0.2864
    194  CB       -10.6760   46.8900   22.0270 C.3   244  ASP244      0.1436
    195  CG       -10.9500   47.7300   20.7810 C.2   244  ASP244      0.3671
    196  OD1      -11.6250   48.7720   20.9110 O.co2 244  ASP244     -0.2456
    197  OD2      -10.4930   47.3900   19.6790 O.co2 244  ASP244     -0.2456
    198  N        -14.0960   50.3810   21.4200 N.3   246  GLY246     -0.1210
    199  CA       -14.2940   51.3240   20.3200 C.3   246  GLY246      0.1956
    200  C        -15.5540   51.1220   19.4790 C.2   246  GLY246      0.2611
    201  O        -16.1800   52.0860   19.0600 O.2   246  GLY246     -0.2717
    202  N        -15.9510   49.8730   19.2410 N.am  247  LYS247     -0.1979
    203  CA       -17.1570   49.5970   18.4300 C.3   247  LYS247      0.1596
    204  C        -18.2120   48.7940   19.1990 C.2   247  LYS247      0.2287
    205  O        -18.8990   47.9950   18.6060 O.2   247  LYS247     -0.2864
    206  CB       -16.8210   48.8740   17.1130 C.3   247  LYS247      0.0298
    207  CG       -15.7390   49.5170   16.2410 C.3   247  LYS247      0.0038
    208  CD       -15.3870   48.6970   14.9610 C.3   247  LYS247      0.0206
    209  CE       -14.4400   47.4560   15.2180 C.3   247  LYS247      0.1093
    210  NZ       -13.0090   47.7220   15.6530 N.3   247  LYS247     -0.1314
@<TRIPOS>BOND
     1    57    58   ar
     2    57    55   ar
     3    58    56   ar
     4    55    54   ar
     5    56    54   ar
     6    54    53    1
     7    53    50    1
     8    50    49    1
     9    50    51    1
    10   208   209    1
    11   208   207    1
    12    48    47    2
    13   163   162    1
    14   209   210    1
    15    49    47   am
    16    51    52    2
    17    47    46    1
    18   161   162    1
    19   161   160    1
    20   207   206    1
    21    45    46    1
    22    45    42   am
    23    35    34    2
    24   160   159    1
    25    41    42    1
    26    41    44    1
    27    41    40    1
    28   206   203    1
    29    42    43    2
    30   159   156    1
    31    64    63    1
    32   158   157    2
    33   165   164    1
    34   165   166    1
    35    34    40   am
    36    34    33    1
    37    31    29   am
    38   203   204    1
    39   203   202    1
    40   157   156    1
    41   156   155    1
    42   205   204    2
    43    59    60    1
    44    63    60    1
    45    26    25    2
    46   201   200    2
    47   167   166    2
    48    33    36    1
    49    33    32    1
    50   202   200   am
    51   150   149    2
    52    60    61    1
    53    29    30    2
    54    29    28    1
    55   200   199    1
    56   197   195   ar
    57    36    37    1
    58    39    37    1
    59    28    27    1
    60    25    32   am
    61    25    24    1
    62   153   152   ar
    63   199   198    1
    64    27    24    1
    65   152   154   ar
    66   152   151    1
    67   173   172    1
    68   149   148    1
    69    37    38    1
    70   151   148    1
    71   195   196   ar
    72   195   194    1
    73    61    65   am
    74    61    62    2
    75    24    23    1
    76    65    66    1
    77   148   147    1
    78    73    71   ar
    79    73    75   ar
    80    71    70   ar
    81    23    17   am
    82   172   169    1
    83    92    91    1
    84   194   191    1
    85    91    90    1
    86   193   192    2
    87   169   168    1
    88   169   170    1
    89    68    67    2
    90    66    69    1
    91    66    67    1
    92   143   142    2
    93    75    74   ar
    94    21    19    1
    95   192   191    1
    96    70    69    1
    97    70    72   ar
    98    17    16    1
    99    17    18    2
   100   191   190    1
   101    89    90    1
   102    89    88    1
   103    13    11   ar
   104    13    14   ar
   105   170   171    2
   106    16    19    1
   107    16    15    1
   108   142   141    1
   109    86    85    1
   110    86    87    2
   111   185   184    2
   112     4     3    2
   113   189   187    1
   114    74    72   ar
   115    19    20    1
   116    11     8   ar
   117    14    12   ar
   118   190   184   am
   119    85    88    1
   120    85    84    1
   121   180   179    1
   122   187   186    1
   123   184   183    1
   124    20    22    1
   125    15     3   am
   126   144   141    1
   127   144   145    1
   128   144   146    1
   129     3     2    1
   130   141   140    1
   131    12    10   ar
   132     8    10   ar
   133     8     6   ar
   134   186   183    1
   135   186   188    1
   136   175   174    1
   137   175   178    1
   138   175   176    1
   139   183   182    1
   140   179   178    1
   141   179   181    1
   142    10     9   ar
   143     5     2    1
   144     5     6    1
   145     2     1    1
   146     6     7   ar
   147   176   177    2
   148     9     7   ar
   149   107   106    1
   150   106   105    1
   151   139   137    1
   152    81    83    1
   153    81    80    1
   154   138   137    1
   155    82    80    1
   156   137   136    1
   157    80    77    1
   158    78    77    1
   159    78    79    2
   160   105   104    1
   161    77    76    1
   162   130   129    1
   163   122   121   ar
   164    98    99    1
   165    98    97    1
   166   136   133    1
   167    99    93    1
   168   104   101    1
   169   121   123   ar
   170   121   120    1
   171   128   129    1
   172   128   125    1
   173   129   131    1
   174    97    94    1
   175   100   101    1
   176   111   110    2
   177   120   117    1
   178   133   132    1
   179   133   134    1
   180   132   126   am
   181   124   125    1
   182   124   118   am
   183   101   102    1
   184   117   118    1
   185   117   116    1
   186    93    94    1
   187   103   102    2
   188   125   126    1
   189   126   127    2
   190   102   108   am
   191   118   119    2
   192    94    95    1
   193   110   116   am
   194   110   109    1
   195    96    95    2
   196   134   135    2
   197   108   109    1
   198   109   112    1
   199   112   113    1
   200   113   114   ar
   201   113   115   ar
