@<TRIPOS>MOLECULE
tmp/2ar6B00.pdb
 152 145 0 0 0
SMALL
GASTEIGER

@<TRIPOS>ATOM
      1  N         -7.8850   -7.9000  -13.0590 N.3    45  SER45      -0.1217
      2  CA        -7.0900   -6.7040  -13.3130 C.3    45  SER45       0.1889
      3  C         -7.2350   -5.5880  -12.2990 C.2    45  SER45       0.2288
      4  O         -7.7340   -4.5040  -12.6130 O.2    45  SER45      -0.2866
      5  CB        -7.4080   -6.1550  -14.7080 C.3    45  SER45       0.2089
      6  OG        -7.0100   -7.0720  -15.7080 O.3    45  SER45      -0.2183
      7  N        -13.3530  -19.1180   -8.0660 N.3    81  LEU81      -0.1231
      8  CA       -12.4760  -19.8580   -8.9790 C.3    81  LEU81       0.1693
      9  C        -11.6510  -20.9170   -8.2570 C.2    81  LEU81       0.2593
     10  O        -11.3720  -20.8040   -7.0640 O.2    81  LEU81      -0.2718
     11  CB       -11.5040  -18.9080   -9.6840 C.3    81  LEU81       0.0284
     12  CG       -12.0420  -17.7100  -10.4620 C.3    81  LEU81       0.0019
     13  CD1      -10.8630  -16.9450  -11.0420 C.3    81  LEU81       0.0001
     14  CD2      -12.9790  -18.1770  -11.5750 C.3    81  LEU81       0.0001
     15  N        -11.2300  -21.9410   -8.9870 N.am   82  SER82      -0.1938
     16  CA       -10.4070  -22.9780   -8.3850 C.3    82  SER82       0.2055
     17  C         -8.9700  -22.4590   -8.2090 C.2    82  SER82       0.2643
     18  O         -8.2050  -22.9970   -7.4150 O.2    82  SER82      -0.2714
     19  CB       -10.3740  -24.2140   -9.2800 C.3    82  SER82       0.2130
     20  OG        -9.8190  -23.8620  -10.5360 O.3    82  SER82      -0.2179
     21  N         -8.6230  -21.4120   -8.9490 N.am   83  ASN83      -0.1971
     22  CA        -7.2760  -20.8480   -8.8980 C.3    83  ASN83       0.1688
     23  C         -7.2590  -19.3390   -8.6590 C.2    83  ASN83       0.2292
     24  O         -6.7930  -18.5720   -9.5100 O.2    83  ASN83      -0.2864
     25  CB        -6.5410  -21.1750  -10.2090 C.3    83  ASN83       0.1181
     26  CG        -7.3680  -20.8260  -11.4470 C.2    83  ASN83       0.2629
     27  OD1       -8.5280  -20.4160  -11.3390 O.2    83  ASN83      -0.2716
     28  ND2       -6.7730  -20.9920  -12.6290 N.am   83  ASN83      -0.0877
     29  N         -6.2430  -15.6950   -7.6590 N.3    85  ALA85      -0.1231
     30  CA        -4.9490  -15.0360   -7.7900 C.3    85  ALA85       0.1694
     31  C         -5.0630  -13.5640   -7.4060 C.2    85  ALA85       0.2592
     32  O         -6.1710  -13.0210   -7.3650 O.2    85  ALA85      -0.2718
     33  CB        -4.4770  -15.1640   -9.2340 C.3    85  ALA85       0.0304
     34  N         -3.9370  -12.8940   -7.1430 N.am   86  ASP86      -0.1974
     35  CA        -2.5810  -13.4480   -7.2110 C.3    86  ASP86       0.1709
     36  C         -1.8860  -13.5700   -5.8600 C.2    86  ASP86       0.2293
     37  O         -0.9500  -14.3530   -5.7100 O.2    86  ASP86      -0.2864
     38  CB        -1.7290  -12.5720   -8.1200 C.3    86  ASP86       0.1436
     39  CG        -1.8650  -12.9660   -9.5770 C.2    86  ASP86       0.3671
     40  OD1       -1.1060  -13.8620  -10.0020 O.co2  86  ASP86      -0.2456
     41  OD2       -2.7410  -12.3980  -10.2640 O.co2  86  ASP86      -0.2456
     42  N          2.3720   -1.5040  -14.6690 N.3   102  GLY102     -0.1225
     43  CA         2.3490   -2.9080  -15.0460 C.3   102  GLY102      0.1811
     44  C          2.6770   -3.9060  -13.9440 C.2   102  GLY102      0.2280
     45  O          2.9630   -5.0700  -14.2260 O.2   102  GLY102     -0.2866
     46  N          0.7660   -5.3420  -11.9590 N.3   104  GLY104     -0.1210
     47  CA        -0.3600   -6.1920  -11.6230 C.3   104  GLY104      0.1956
     48  C         -0.0470   -7.6740  -11.7100 C.2   104  GLY104      0.2612
     49  O          1.1070   -8.0800  -11.8950 O.2   104  GLY104     -0.2717
     50  N         -1.0820   -8.4940  -11.5660 N.am  105  GLY105     -0.1942
     51  CA        -0.8930   -9.9310  -11.6520 C.3   105  GLY105      0.2014
     52  C          0.1220  -10.5060  -10.6810 C.2   105  GLY105      0.2639
     53  O          0.1570  -10.1440   -9.5060 O.2   105  GLY105     -0.2714
     54  N          0.9660  -11.3950  -11.1860 N.am  106  GLY106     -0.1939
     55  CA         1.9580  -12.0420  -10.3480 C.3   106  GLY106      0.2014
     56  C          3.0340  -11.1280   -9.7970 C.2   106  GLY106      0.2638
     57  O          3.8780  -11.5790   -9.0310 O.2   106  GLY106     -0.2714
     58  N          3.0330   -9.8590  -10.1890 N.am  107  LEU107     -0.1977
     59  CA         4.0370   -8.9530   -9.6570 C.3   107  LEU107      0.1596
     60  C          3.5510   -8.3130   -8.3560 C.2   107  LEU107      0.2287
     61  O          4.2380   -7.4890   -7.7700 O.2   107  LEU107     -0.2864
     62  CB         4.4180   -7.9020  -10.6990 C.3   107  LEU107      0.0297
     63  CG         5.0760   -8.5420  -11.9360 C.3   107  LEU107      0.0022
     64  CD1        5.5660   -7.4450  -12.8610 C.3   107  LEU107      0.0001
     65  CD2        6.2310   -9.4640  -11.5270 C.3   107  LEU107      0.0001
     66  N          7.5300   -4.9810  -14.5230 N.3   113  PRO113     -0.2116
     67  CA         7.9140   -6.1290  -15.3510 C.3   113  PRO113      0.1372
     68  C          9.3830   -6.1680  -15.7810 C.2   113  PRO113      0.2244
     69  O         10.0430   -7.2010  -15.6690 O.2   113  PRO113     -0.2868
     70  CB         6.9720   -6.0210  -16.5480 C.3   113  PRO113      0.0268
     71  CG         5.7630   -5.3520  -15.9780 C.3   113  PRO113      0.0207
     72  CD         6.3610   -4.2850  -15.0900 C.3   113  PRO113      0.0892
     73  N         -0.9640  -18.0920   -6.7530 N.3   132  PHE132     -0.1241
     74  CA        -1.0080  -18.4320   -8.1720 C.3   132  PHE132      0.1605
     75  C          0.4090  -18.6980   -8.6410 C.2   132  PHE132      0.2264
     76  O          1.2760  -17.8240   -8.5620 O.2   132  PHE132     -0.2867
     77  CB        -1.6390  -17.2890   -8.9590 C.3   132  PHE132      0.0534
     78  CG        -1.9390  -17.6430  -10.3890 C.ar  132  PHE132     -0.0203
     79  CD1       -3.1090  -18.3240  -10.7210 C.ar  132  PHE132     -0.0042
     80  CD2       -1.0390  -17.3190  -11.3990 C.ar  132  PHE132     -0.0042
     81  CE1       -3.3740  -18.6760  -12.0530 C.ar  132  PHE132     -0.0003
     82  CE2       -1.2970  -17.6700  -12.7320 C.ar  132  PHE132     -0.0003
     83  CZ        -2.4640  -18.3460  -13.0560 C.ar  132  PHE132     -0.0000
     84  N          1.1780  -20.6900  -11.8410 N.3   134  ALA134     -0.1245
     85  CA         1.2510  -21.2600  -13.1940 C.3   134  ALA134      0.1562
     86  C          2.6540  -21.0360  -13.7600 C.2   134  ALA134      0.2260
     87  O          3.0950  -19.9000  -13.9360 O.2   134  ALA134     -0.2867
     88  CB         0.2190  -20.6070  -14.0870 C.3   134  ALA134      0.0290
     89  N          3.8430  -21.1040  -16.6280 N.3   136  ASP136     -0.1225
     90  CA         3.9880  -20.4490  -17.9210 C.3   136  ASP136      0.1805
     91  C          3.9530  -18.9280  -17.8230 C.2   136  ASP136      0.2598
     92  O          4.4530  -18.2360  -18.7090 O.2   136  ASP136     -0.2718
     93  CB         2.9270  -20.9590  -18.9160 C.3   136  ASP136      0.1424
     94  CG         1.5080  -20.8800  -18.3730 C.2   136  ASP136      0.3668
     95  OD1        0.5700  -21.2220  -19.1270 O.co2 136  ASP136     -0.2456
     96  OD2        1.3250  -20.4830  -17.2050 O.co2 136  ASP136     -0.2456
     97  N          3.3770  -18.4020  -16.7460 N.am  137  SER137     -0.1938
     98  CA         3.3160  -16.9530  -16.5620 C.3   137  SER137      0.2055
     99  C          4.1190  -16.5230  -15.3310 C.2   137  SER137      0.2643
    100  O          4.8110  -15.5070  -15.3620 O.2   137  SER137     -0.2714
    101  CB         1.8630  -16.4790  -16.4350 C.3   137  SER137      0.2130
    102  OG         1.1910  -17.1540  -15.3880 O.3   137  SER137     -0.2179
    103  N          4.0220  -17.2920  -14.2490 N.am  138  ASN138     -0.1971
    104  CA         4.7650  -16.9880  -13.0210 C.3   138  ASN138      0.1688
    105  C          5.9780  -17.9210  -13.0140 C.2   138  ASN138      0.2292
    106  O          6.1350  -18.7700  -12.1370 O.2   138  ASN138     -0.2864
    107  CB         3.8770  -17.2300  -11.7860 C.3   138  ASN138      0.1181
    108  CG         2.8220  -16.1430  -11.6020 C.2   138  ASN138      0.2629
    109  OD1        2.6290  -15.6260  -10.4930 O.2   138  ASN138     -0.2716
    110  ND2        2.1360  -15.7850  -12.6860 N.am  138  ASN138     -0.0877
    111  N          8.9810  -17.5910  -12.1990 N.3   140  TRP140     -0.1241
    112  CA         9.8770  -17.4810  -11.0480 C.3   140  TRP140      0.1605
    113  C          9.4040  -18.2540   -9.8190 C.2   140  TRP140      0.2264
    114  O         10.1720  -18.4590   -8.8850 O.2   140  TRP140     -0.2867
    115  CB        10.0220  -16.0050  -10.6820 C.3   140  TRP140      0.0550
    116  CG         8.6870  -15.3390  -10.5330 C.ar  140  TRP140      0.0003
    117  CD1        7.8560  -15.3980   -9.4480 C.ar  140  TRP140      0.0946
    118  CD2        7.9830  -14.6010  -11.5340 C.ar  140  TRP140      0.0152
    119  NE1        6.6830  -14.7470   -9.7160 N.ar  140  TRP140     -0.2442
    120  CE2        6.7290  -14.2470  -10.9880 C.ar  140  TRP140      0.0810
    121  CE3        8.2860  -14.2040  -12.8420 C.ar  140  TRP140      0.0012
    122  CZ2        5.7780  -13.5120  -11.7040 C.ar  140  TRP140      0.0191
    123  CZ3        7.3410  -13.4740  -13.5530 C.ar  140  TRP140      0.0001
    124  CH2        6.1000  -13.1360  -12.9810 C.ar  140  TRP140      0.0015
    125  N         -4.5500   -8.8560   -8.6600 N.3   219  SER219     -0.1202
    126  CA        -5.2180   -9.9590   -9.3500 C.3   219  SER219      0.2020
    127  C         -5.0250   -9.6560  -10.8340 C.2   219  SER219      0.2619
    128  O         -5.2110   -8.5150  -11.2560 O.2   219  SER219     -0.2717
    129  CB        -6.7170   -9.9950   -9.0390 C.3   219  SER219      0.2103
    130  OG        -6.9620  -10.4730   -7.7240 O.3   219  SER219     -0.2182
    131  N         -4.6140  -10.6660  -11.5960 N.am  220  GLY220     -0.1942
    132  CA        -4.4280  -10.4990  -13.0250 C.3   220  GLY220      0.2014
    133  C         -5.6650  -11.0450  -13.7170 C.2   220  GLY220      0.2639
    134  O         -6.7680  -10.5610  -13.4660 O.2   220  GLY220     -0.2714
    135  N         -5.5010  -12.0480  -14.5790 N.am  221  GLU221     -0.1963
    136  CA        -6.6530  -12.6290  -15.2660 C.3   221  GLU221      0.1733
    137  C         -7.4910  -13.4580  -14.2970 C.2   221  GLU221      0.2616
    138  O         -8.7000  -13.5990  -14.4840 O.2   221  GLU221     -0.2715
    139  CB        -6.2070  -13.4920  -16.4570 C.3   221  GLU221      0.0429
    140  CG        -5.3170  -12.7360  -17.4430 C.3   221  GLU221      0.1163
    141  CD        -5.7310  -12.9200  -18.8940 C.2   221  GLU221      0.3649
    142  OE1       -5.8090  -14.0760  -19.3560 O.co2 221  GLU221     -0.2457
    143  OE2       -5.9720  -11.9000  -19.5710 O.co2 221  GLU221     -0.2457
    144  N         -6.8490  -14.0320  -13.2800 N.am  222  GLN222     -0.1977
    145  CA        -7.5840  -14.7900  -12.2720 C.3   222  GLN222      0.1601
    146  C         -7.7040  -13.8440  -11.0690 C.2   222  GLN222      0.2287
    147  O         -6.9400  -12.8820  -10.9530 O.2   222  GLN222     -0.2864
    148  CB        -6.8740  -16.0940  -11.9090 C.3   222  GLN222      0.0394
    149  CG        -7.2350  -17.2560  -12.8470 C.3   222  GLN222      0.0908
    150  CD        -6.6460  -17.0960  -14.2470 C.2   222  GLN222      0.2608
    151  OE1       -7.5070  -16.9690  -15.2580 O.2   222  GLN222     -0.2717
    152  NE2       -5.4320  -17.0820  -14.4090 N.am  222  GLN222     -0.0878
@<TRIPOS>BOND
     1   143   141   ar
     2   142   141   ar
     3    95    94   ar
     4    93    94    1
     5    93    90    1
     6   141   140    1
     7    92    91    2
     8    94    96   ar
     9    90    91    1
    10    90    89    1
    11    91    97   am
    12   140   139    1
    13    97    98    1
    14    98   101    1
    15    98    99    1
    16    70    71    1
    17    70    67    1
    18   139   136    1
    19   101   102    1
    20    71    72    1
    21    68    69    2
    22    68    67    1
    23     6     5    1
    24   100    99    2
    25    67    66    1
    26    99   103   am
    27   136   135    1
    28   136   137    1
    29   151   150    2
    30    72    66    1
    31    43    42    1
    32    43    44    1
    33     5     2    1
    34   135   133   am
    35   138   137    2
    36   152   150   am
    37   137   144   am
    38   103   104    1
    39   150   149    1
    40    45    44    2
    41    88    85    1
    42    87    86    2
    43    86    85    1
    44   133   134    2
    45   133   132    1
    46   123   124   ar
    47   123   121   ar
    48     2     1    1
    49     2     3    1
    50   144   145    1
    51    85    84    1
    52    83    82   ar
    53    83    81   ar
    54   132   131    1
    55   104   105    1
    56   104   107    1
    57   105   106    2
    58   124   122   ar
    59    64    63    1
    60   149   148    1
    61   121   118   ar
    62    82    80   ar
    63   110   108   am
    64    28    26   am
    65     4     3    2
    66   145   148    1
    67   145   146    1
    68   111   112    1
    69    81    79   ar
    70    46    47    1
    71    63    65    1
    72    63    62    1
    73    49    48    2
    74   107   108    1
    75    48    47    1
    76    48    50   am
    77   122   120   ar
    78    51    50    1
    79    51    52    1
    80   108   109    2
    81   131   127   am
    82    14    12    1
    83   118   120   ar
    84   118   116   ar
    85    26    27    2
    86    26    25    1
    87    80    78   ar
    88   128   127    2
    89    54    52   am
    90    54    55    1
    91   146   147    2
    92   112   115    1
    93   112   113    1
    94    13    12    1
    95   120   119   ar
    96   127   126    1
    97    79    78   ar
    98    62    59    1
    99   115   116    1
   100    52    53    2
   101    20    19    1
   102   116   117   ar
   103    12    11    1
   104    78    77    1
   105    55    56    1
   106    41    39   ar
   107    25    22    1
   108    58    56   am
   109    58    59    1
   110    40    39   ar
   111   113   114    2
   112    56    57    2
   113   119   117   ar
   114    11     8    1
   115    59    60    1
   116    39    38    1
   117    24    23    2
   118   126   129    1
   119   126   125    1
   120    19    16    1
   121    33    30    1
   122   129   130    1
   123    15    16    1
   124    15     9   am
   125     8     9    1
   126     8     7    1
   127    77    74    1
   128    21    22    1
   129    21    17   am
   130    22    23    1
   131    75    76    2
   132    75    74    1
   133    16    17    1
   134    60    61    2
   135     9    10    2
   136    17    18    2
   137    74    73    1
   138    38    35    1
   139    30    29    1
   140    30    31    1
   141    31    32    2
   142    31    34   am
   143    35    34    1
   144    35    36    1
   145    36    37    2
