@<TRIPOS>MOLECULE
tmp/2arbA00.pdb
 130 125 0 0 0
SMALL
GASTEIGER

@<TRIPOS>ATOM
      1  N         13.7550   38.4090   21.4140 N.3    44  ALA44      -0.1231
      2  CA        12.3670   38.8290   21.5930 C.3    44  ALA44       0.1694
      3  C         11.5150   38.5460   20.3680 C.2    44  ALA44       0.2592
      4  O         12.0310   38.2620   19.2860 O.2    44  ALA44      -0.2718
      5  CB        12.3080   40.3180   21.9030 C.3    44  ALA44       0.0304
      6  N         10.2050   38.6080   20.5810 N.am   45  SER45      -0.1952
      7  CA         9.1950   38.4620   19.5550 C.3    45  SER45       0.1924
      8  C          9.3630   37.2220   18.6790 C.2    45  SER45       0.2314
      9  O          9.7470   37.3130   17.5100 O.2    45  SER45      -0.2863
     10  CB         9.1980   39.7510   18.7230 C.3    45  SER45       0.2116
     11  OG         8.0940   39.8210   17.8420 O.3    45  SER45      -0.2180
     12  N         10.3540   35.1030   29.6000 N.3    85  ALA85      -0.1231
     13  CA         8.9610   34.9450   29.1600 C.3    85  ALA85       0.1694
     14  C          8.9460   34.2530   27.7950 C.2    85  ALA85       0.2592
     15  O          9.9710   34.2130   27.1240 O.2    85  ALA85      -0.2718
     16  CB         8.2880   36.2910   29.0470 C.3    85  ALA85       0.0304
     17  N          7.8020   33.7220   27.3650 N.am   86  ASP86      -0.1974
     18  CA         6.5450   33.7410   28.0860 C.3    86  ASP86       0.1709
     19  C          6.1010   32.4010   28.6380 C.2    86  ASP86       0.2293
     20  O          5.3050   32.3540   29.5670 O.2    86  ASP86      -0.2864
     21  CB         5.4450   34.2520   27.1850 C.3    86  ASP86       0.1436
     22  CG         5.3980   35.7580   27.1770 C.2    86  ASP86       0.3671
     23  OD1        6.0830   36.3930   26.3370 O.co2  86  ASP86      -0.2456
     24  OD2        4.6940   36.2760   28.0600 O.co2  86  ASP86      -0.2456
     25  N         -1.0010   37.2020   15.5460 N.3   102  GLY102     -0.1225
     26  CA        -0.8650   37.9500   16.7940 C.3   102  GLY102      0.1811
     27  C         -0.8510   37.1100   18.0780 C.2   102  GLY102      0.2280
     28  O         -1.0270   37.6450   19.1770 O.2   102  GLY102     -0.2866
     29  N          1.5890   35.8030   19.7360 N.3   104  GLY104     -0.1210
     30  CA         2.8390   35.8030   20.4750 C.3   104  GLY104      0.1956
     31  C          2.7070   36.2780   21.9190 C.2   104  GLY104      0.2612
     32  O          1.5990   36.4600   22.4320 O.2   104  GLY104     -0.2717
     33  N          3.8460   36.4780   22.5780 N.am  105  GLY105     -0.1942
     34  CA         3.8230   36.9210   23.9600 C.3   105  GLY105      0.2014
     35  C          3.0510   35.9700   24.8520 C.2   105  GLY105      0.2639
     36  O          3.1590   34.7580   24.7000 O.2   105  GLY105     -0.2714
     37  N          2.2480   36.5350   25.7470 N.am  106  GLY106     -0.1939
     38  CA         1.4660   35.7600   26.6970 C.3   106  GLY106      0.2014
     39  C          0.3860   34.8790   26.1120 C.2   106  GLY106      0.2638
     40  O         -0.2590   34.1320   26.8590 O.2   106  GLY106     -0.2714
     41  N          0.1480   34.9810   24.7990 N.am  107  LEU107     -0.1977
     42  CA        -0.8590   34.1160   24.1960 C.3   107  LEU107      0.1596
     43  C         -0.2460   32.7580   23.8280 C.2   107  LEU107      0.2287
     44  O         -0.9360   31.8580   23.3530 O.2   107  LEU107     -0.2864
     45  CB        -1.5250   34.8000   22.9890 C.3   107  LEU107      0.0297
     46  CG        -2.3620   35.9950   23.4950 C.3   107  LEU107      0.0022
     47  CD1       -3.0650   36.6820   22.3290 C.3   107  LEU107      0.0001
     48  CD2       -3.4090   35.5130   24.5080 C.3   107  LEU107      0.0001
     49  N         -5.5080   37.3090   19.6710 N.3   113  PRO113     -0.2116
     50  CA        -5.8770   38.3820   20.5910 C.3   113  PRO113      0.1372
     51  C         -7.3640   38.6330   20.8130 C.2   113  PRO113      0.2244
     52  O         -7.8390   38.6830   21.9570 O.2   113  PRO113     -0.2868
     53  CB        -5.1550   39.5830   19.9970 C.3   113  PRO113      0.0268
     54  CG        -3.9070   38.9590   19.4870 C.3   113  PRO113      0.0207
     55  CD        -4.4970   37.7950   18.7190 C.3   113  PRO113      0.0892
     56  N          5.5160   34.3720   33.0240 N.3   132  PHE132     -0.1241
     57  CA         5.3930   35.8300   32.9870 C.3   132  PHE132      0.1605
     58  C          3.9380   36.1960   33.2550 C.2   132  PHE132      0.2264
     59  O          3.0310   35.7090   32.5860 O.2   132  PHE132     -0.2867
     60  CB         5.8310   36.3330   31.6100 C.3   132  PHE132      0.0534
     61  CG         5.9410   37.8230   31.5250 C.ar  132  PHE132     -0.0203
     62  CD1        7.1300   38.4570   31.8810 C.ar  132  PHE132     -0.0042
     63  CD2        4.8580   38.5880   31.1170 C.ar  132  PHE132     -0.0042
     64  CE1        7.2420   39.8590   31.8260 C.ar  132  PHE132     -0.0003
     65  CE2        4.9460   40.0000   31.0580 C.ar  132  PHE132     -0.0003
     66  CZ         6.1470   40.6270   31.4160 C.ar  132  PHE132     -0.0000
     67  N         -0.4930   44.1880   33.4510 N.3   136  ASP136     -0.1225
     68  CA        -0.8880   45.1670   32.4390 C.3   136  ASP136      0.1805
     69  C         -1.1310   44.4530   31.0880 C.2   136  ASP136      0.2598
     70  O         -2.0460   44.8250   30.3370 O.2   136  ASP136     -0.2718
     71  CB         0.1770   46.2630   32.2830 C.3   136  ASP136      0.1424
     72  CG         1.5160   45.7120   31.8700 C.2   136  ASP136      0.3668
     73  OD1        2.0660   44.8610   32.6060 O.co2 136  ASP136     -0.2456
     74  OD2        2.0150   46.1250   30.8050 O.co2 136  ASP136     -0.2456
     75  N         -0.3380   43.4240   30.7870 N.am  137  SER137     -0.1938
     76  CA        -0.4900   42.6890   29.5180 C.3   137  SER137      0.2055
     77  C         -1.1020   41.2670   29.6420 C.2   137  SER137      0.2643
     78  O         -1.8020   40.8050   28.7280 O.2   137  SER137     -0.2714
     79  CB         0.8630   42.6000   28.8090 C.3   137  SER137      0.2130
     80  OG         1.7950   41.9190   29.6390 O.3   137  SER137     -0.2179
     81  N         -0.8440   40.5790   30.7570 N.am  138  ASN138     -0.1971
     82  CA        -1.3780   39.2250   30.9740 C.3   138  ASN138      0.1688
     83  C         -2.4400   39.3450   32.0550 C.2   138  ASN138      0.2292
     84  O         -2.3110   38.7670   33.1300 O.2   138  ASN138     -0.2864
     85  CB        -0.2730   38.2670   31.4530 C.3   138  ASN138      0.1181
     86  CG         0.7620   37.9570   30.3770 C.2   138  ASN138      0.2629
     87  OD1        1.0440   36.7820   30.1110 O.2   138  ASN138     -0.2716
     88  ND2        1.3510   38.9990   29.7620 N.am  138  ASN138     -0.0877
     89  N         -5.2790   38.0440   32.5340 N.3   140  TRP140     -0.1241
     90  CA        -5.9810   36.8260   32.9140 C.3   140  TRP140      0.1605
     91  C         -5.2000   35.9430   33.8910 C.2   140  TRP140      0.2264
     92  O         -5.7580   35.0180   34.4510 O.2   140  TRP140     -0.2867
     93  CB        -6.2570   36.0170   31.6240 C.3   140  TRP140      0.0550
     94  CG        -5.0020   35.8540   30.8440 C.ar  140  TRP140      0.0003
     95  CD1       -3.9740   35.0000   31.1210 C.ar  140  TRP140      0.0946
     96  CD2       -4.5600   36.6730   29.7580 C.ar  140  TRP140      0.0152
     97  NE1       -2.9180   35.2430   30.2770 N.ar  140  TRP140     -0.2442
     98  CE2       -3.2500   36.2650   29.4290 C.ar  140  TRP140      0.0810
     99  CE3       -5.1440   37.7210   29.0290 C.ar  140  TRP140      0.0012
    100  CZ2       -2.5100   36.8660   28.3990 C.ar  140  TRP140      0.0191
    101  CZ3       -4.4080   38.3180   28.0040 C.ar  140  TRP140      0.0001
    102  CH2       -3.1020   37.8870   27.7010 C.ar  140  TRP140      0.0015
    103  N          7.7570   34.1840   23.0170 N.3   219  SER219     -0.1202
    104  CA         8.4360   35.2270   23.8090 C.3   219  SER219      0.2020
    105  C          7.9510   36.5440   23.2000 C.2   219  SER219      0.2619
    106  O          7.9050   36.6730   21.9750 O.2   219  SER219     -0.2717
    107  CB         9.9530   35.1450   23.7080 C.3   219  SER219      0.2103
    108  OG        10.4780   34.0460   24.4320 O.3   219  SER219     -0.2182
    109  N          7.5400   37.4980   24.0400 N.am  220  GLY220     -0.1942
    110  CA         7.0920   38.7950   23.5290 C.3   220  GLY220      0.2014
    111  C          8.2440   39.7730   23.7440 C.2   220  GLY220      0.2639
    112  O          9.3040   39.5900   23.1600 O.2   220  GLY220     -0.2714
    113  N          8.0690   40.7960   24.5820 N.am  221  GLU221     -0.1963
    114  CA         9.1780   41.7250   24.8470 C.3   221  GLU221      0.1733
    115  C         10.2370   41.1290   25.7760 C.2   221  GLU221      0.2616
    116  O         11.4150   41.5070   25.7140 O.2   221  GLU221     -0.2715
    117  CB         8.6470   43.0350   25.4070 C.3   221  GLU221      0.0429
    118  CG         7.8600   43.7930   24.3670 C.3   221  GLU221      0.1163
    119  CD         7.4230   45.1460   24.8540 C.2   221  GLU221      0.3649
    120  OE1        8.2810   45.8580   25.4290 O.co2 221  GLU221     -0.2457
    121  OE2        6.2390   45.4980   24.6480 O.co2 221  GLU221     -0.2457
    122  N          9.8240   40.2170   26.6540 N.am  222  GLN222     -0.1977
    123  CA        10.7700   39.5290   27.5240 C.3   222  GLN222      0.1601
    124  C         10.9760   38.1690   26.8500 C.2   222  GLN222      0.2287
    125  O         10.1160   37.7180   26.0910 O.2   222  GLN222     -0.2864
    126  CB        10.2390   39.3680   28.9510 C.3   222  GLN222      0.0394
    127  CG        10.3920   40.6120   29.8290 C.3   222  GLN222      0.0908
    128  CD         9.5860   41.7990   29.3390 C.2   222  GLN222      0.2608
    129  OE1        8.3620   41.7330   29.2380 O.2   222  GLN222     -0.2717
    130  NE2       10.2720   42.8980   29.0370 N.am  222  GLN222     -0.0878
@<TRIPOS>BOND
     1    25    26    1
     2    26    27    1
     3     9     8    2
     4    11    10    1
     5    27    28    2
     6     8     7    1
     7    55    54    1
     8    55    49    1
     9    10     7    1
    10     4     3    2
    11    54    53    1
    12     7     6    1
    13    49    50    1
    14    29    30    1
    15    53    50    1
    16     3     6   am
    17     3     2    1
    18    30    31    1
    19    50    51    1
    20    51    52    2
    21     1     2    1
    22     2     5    1
    23    31    32    2
    24    31    33   am
    25   106   105    2
    26    47    46    1
    27    33    34    1
    28    45    46    1
    29    45    42    1
    30   103   104    1
    31   112   111    2
    32   105   104    1
    33   105   109   am
    34    44    43    2
    35    46    48    1
    36   110   111    1
    37   110   109    1
    38   107   104    1
    39   107   108    1
    40   111   113   am
    41    43    42    1
    42    34    35    1
    43    42    41    1
    44   118   119    1
    45   118   117    1
    46   113   114    1
    47   121   119   ar
    48    36    35    2
    49    41    39   am
    50   114   117    1
    51   114   115    1
    52    35    37   am
    53   119   120   ar
    54   116   115    2
    55    37    38    1
    56   115   122   am
    57   125   124    2
    58    39    38    1
    59    39    40    2
    60    23    22   ar
    61   122   123    1
    62   124   123    1
    63    15    14    2
    64    22    21    1
    65    22    24   ar
    66    21    18    1
    67    17    14   am
    68    17    18    1
    69   123   126    1
    70   102   101   ar
    71   102   100   ar
    72    14    13    1
    73   101    99   ar
    74    18    19    1
    75   100    98   ar
    76    19    20    2
    77    78    77    2
    78    79    76    1
    79    79    80    1
    80   126   127    1
    81    99    96   ar
    82   130   128   am
    83    16    13    1
    84    13    12    1
    85   129   128    2
    86   128   127    1
    87    98    96   ar
    88    98    97   ar
    89    76    77    1
    90    76    75    1
    91    77    81   am
    92    96    94   ar
    93    88    86   am
    94    87    86    2
    95    97    95   ar
    96    70    69    2
    97    86    85    1
    98    81    82    1
    99    75    69   am
   100    74    72   ar
   101    94    95   ar
   102    94    93    1
   103    82    85    1
   104    82    83    1
   105    65    63   ar
   106    65    66   ar
   107    69    68    1
   108    63    61   ar
   109    66    64   ar
   110    61    60    1
   111    61    62   ar
   112    60    57    1
   113    93    90    1
   114    64    62   ar
   115    72    71    1
   116    72    73   ar
   117    83    84    2
   118    71    68    1
   119    68    67    1
   120    89    90    1
   121    59    58    2
   122    90    91    1
   123    57    56    1
   124    57    58    1
   125    91    92    2
