@<TRIPOS>MOLECULE
tmp/2arcB00.pdb
 123 119 0 0 0
SMALL
GASTEIGER

@<TRIPOS>ATOM
      1  N         44.2780    6.0320   47.4770 N.3     2  PRO2       -0.2102
      2  CA        43.0740    5.3960   46.9120 C.3     2  PRO2        0.1504
      3  C         43.3580    4.5970   45.6380 C.2     2  PRO2        0.2576
      4  O         42.5450    3.7560   45.2470 O.2     2  PRO2       -0.2718
      5  CB        42.1630    6.5860   46.5990 C.3     2  PRO2        0.0282
      6  CG        42.6510    7.6770   47.4990 C.3     2  PRO2        0.0208
      7  CD        44.1440    7.5040   47.4670 C.3     2  PRO2        0.0893
      8  N         44.5010    4.8720   45.0030 N.am    3  LEU3       -0.1966
      9  CA        44.8830    4.2030   43.7610 C.3     3  LEU3        0.1728
     10  C         45.4790    2.8210   43.9780 C.2     3  LEU3        0.2616
     11  O         45.7770    2.1120   43.0200 O.2     3  LEU3       -0.2715
     12  CB        45.8720    5.0610   42.9690 C.3     3  LEU3        0.0311
     13  CG        45.4940    6.5160   42.6580 C.3     3  LEU3        0.0022
     14  CD1       46.5470    7.1050   41.7250 C.3     3  LEU3        0.0001
     15  CD2       44.1060    6.5980   42.0090 C.3     3  LEU3        0.0001
     16  N         45.6630    2.4420   45.2350 N.am    4  LEU4       -0.1977
     17  CA        46.2660    1.1510   45.5680 C.3     4  LEU4        0.1596
     18  C         45.4310    0.3850   46.5680 C.2     4  LEU4        0.2287
     19  O         44.6450    0.9860   47.3240 O.2     4  LEU4       -0.2864
     20  CB        47.6570    1.3690   46.1720 C.3     4  LEU4        0.0297
     21  CG        48.6720    1.9510   45.1900 C.3     4  LEU4        0.0022
     22  CD1       49.7790    2.6380   45.9680 C.3     4  LEU4        0.0001
     23  CD2       49.2040    0.8320   44.2810 C.3     4  LEU4        0.0001
     24  N         36.9570    2.4120   51.1290 N.3     9  PHE9       -0.1241
     25  CA        35.9040    3.2170   50.5140 C.3     9  PHE9        0.1605
     26  C         34.6240    2.8610   51.2480 C.2     9  PHE9        0.2264
     27  O         34.2590    1.6800   51.3150 O.2     9  PHE9       -0.2867
     28  CB        35.6830    2.8260   49.0540 C.3     9  PHE9        0.0534
     29  CG        36.8340    3.1090   48.1560 C.ar    9  PHE9       -0.0203
     30  CD1       36.9460    4.3440   47.5290 C.ar    9  PHE9       -0.0042
     31  CD2       37.7640    2.1100   47.8610 C.ar    9  PHE9       -0.0042
     32  CE1       37.9690    4.5890   46.6050 C.ar    9  PHE9       -0.0003
     33  CE2       38.7930    2.3410   46.9410 C.ar    9  PHE9       -0.0003
     34  CZ        38.8960    3.5810   46.3100 C.ar    9  PHE9       -0.0000
     35  N         43.3270    7.1700   37.6450 N.3    18  THR18      -0.1218
     36  CA        44.2530    6.0580   37.7260 C.3    18  THR18       0.1862
     37  C         44.9770    5.9610   36.3870 C.2    18  THR18       0.2287
     38  O         44.4080    5.5240   35.3840 O.2    18  THR18      -0.2866
     39  CB        43.5200    4.7390   38.0050 C.3    18  THR18       0.1770
     40  OG1       42.7250    4.8880   39.1850 O.3    18  THR18      -0.2211
     41  CG2       44.5140    3.6010   38.1950 C.3    18  THR18       0.0375
     42  N         48.3070   -3.4660   37.5340 N.3    28  PHE28      -0.1241
     43  CA        47.6890   -4.6430   38.1430 C.3    28  PHE28       0.1605
     44  C         46.1780   -4.4840   37.9880 C.2    28  PHE28       0.2264
     45  O         45.6790   -3.3750   37.7560 O.2    28  PHE28      -0.2867
     46  CB        48.0330   -4.7610   39.6330 C.3    28  PHE28       0.0534
     47  CG        47.6520   -3.5510   40.4460 C.ar   28  PHE28      -0.0203
     48  CD1       46.3640   -3.4280   40.9850 C.ar   28  PHE28      -0.0042
     49  CD2       48.5800   -2.5230   40.6580 C.ar   28  PHE28      -0.0042
     50  CE1       46.0060   -2.2980   41.7270 C.ar   28  PHE28      -0.0003
     51  CE2       48.2370   -1.3880   41.3950 C.ar   28  PHE28      -0.0003
     52  CZ        46.9420   -1.2690   41.9330 C.ar   28  PHE28      -0.0000
     53  N         42.3180   -4.2860   39.2160 N.3    30  ILE30      -0.1245
     54  CA        41.5920   -3.9740   40.4400 C.3    30  ILE30       0.1561
     55  C         40.7410   -5.2470   40.5370 C.2    30  ILE30       0.2260
     56  O         40.0920   -5.6660   39.5610 O.2    30  ILE30      -0.2867
     57  CB        40.7990   -2.6210   40.3720 C.3    30  ILE30       0.0252
     58  CG1       39.2990   -2.8570   40.3000 C.3    30  ILE30       0.0019
     59  CG2       41.3780   -1.6940   39.2860 C.3    30  ILE30       0.0019
     60  CD1       38.6790   -3.1210   41.6330 C.3    30  ILE30       0.0001
     61  N         38.0750   -6.8710   43.1420 N.3    32  ARG32      -0.1245
     62  CA        37.1800   -6.8280   44.2890 C.3    32  ARG32       0.1563
     63  C         36.0400   -7.7730   43.9420 C.2    32  ARG32       0.2260
     64  O         34.9890   -7.3610   43.4430 O.2    32  ARG32      -0.2867
     65  CB        36.6800   -5.3920   44.5140 C.3    32  ARG32       0.0307
     66  CG        37.8000   -4.4030   44.8040 C.3    32  ARG32       0.0489
     67  CD        37.2890   -2.9760   44.9650 C.3    32  ARG32       0.2205
     68  NE        38.4210   -2.0540   44.9880 N.pl3  32  ARG32      -0.0865
     69  CZ        38.5200   -0.9220   44.2870 C.cat  32  ARG32       0.5346
     70  NH1       37.5280   -0.5100   43.4930 N.pl3  32  ARG32       0.1354
     71  NH2       39.6780   -0.2680   44.2820 N.pl3  32  ARG32       0.1354
     72  N         30.5140    3.0820   41.6260 N.3    40  ILE40      -0.1245
     73  CA        31.6860    3.6670   40.9700 C.3    40  ILE40       0.1561
     74  C         31.3410    3.9520   39.5170 C.2    40  ILE40       0.2260
     75  O         30.7310    3.1180   38.8190 O.2    40  ILE40      -0.2867
     76  CB        33.0010    2.7850   41.0260 C.3    40  ILE40       0.0252
     77  CG1       33.6180    2.8160   42.4450 C.3    40  ILE40       0.0019
     78  CG2       34.0460    3.2830   39.9850 C.3    40  ILE40       0.0019
     79  CD1       35.0710    2.3380   42.5160 C.3    40  ILE40       0.0001
     80  N         33.1530    5.1390   36.0180 N.3    42  ASN42      -0.1240
     81  CA        34.4900    5.0700   35.4330 C.3    42  ASN42       0.1653
     82  C         34.5140    5.5860   33.9910 C.2    42  ASN42       0.2266
     83  O         33.7830    5.0870   33.1270 O.2    42  ASN42      -0.2867
     84  CB        34.9390    3.5940   35.5050 C.3    42  ASN42       0.1155
     85  CG        36.2650    3.3190   34.8250 C.2    42  ASN42       0.2627
     86  OD1       36.5180    3.7650   33.6970 O.2    42  ASN42      -0.2716
     87  ND2       37.1000    2.4950   35.4780 N.am   42  ASN42      -0.0877
     88  N         38.9470   -5.4130   36.6280 N.3    76  TYR76      -0.1241
     89  CA        39.3330   -4.7250   35.4050 C.3    76  TYR76       0.1605
     90  C         40.7480   -4.1770   35.4960 C.2    76  TYR76       0.2264
     91  O         41.3030   -3.9980   36.5960 O.2    76  TYR76      -0.2867
     92  CB        38.3160   -3.6180   35.0670 C.3    76  TYR76       0.0534
     93  CG        37.8910   -2.7740   36.2540 C.ar   76  TYR76      -0.0201
     94  CD1       38.7190   -1.7560   36.7480 C.ar   76  TYR76      -0.0009
     95  CD2       36.6640   -3.0010   36.8930 C.ar   76  TYR76      -0.0009
     96  CE1       38.3300   -0.9780   37.8540 C.ar   76  TYR76       0.0417
     97  CE2       36.2680   -2.2340   38.0000 C.ar   76  TYR76       0.0417
     98  CZ        37.1010   -1.2240   38.4750 C.ar   76  TYR76       0.1957
     99  OH        36.7070   -0.4570   39.5580 O.3    76  TYR76      -0.2866
    100  N         42.0610    6.0670   33.4710 N.3    87  HIS87      -0.1241
    101  CA        40.6280    6.1870   33.6980 C.3    87  HIS87       0.1621
    102  C         40.3120    7.0580   34.9000 C.2    87  HIS87       0.2264
    103  O         41.0190    7.0110   35.9010 O.2    87  HIS87      -0.2867
    104  CB        39.9430    4.7970   33.8600 C.3    87  HIS87       0.0745
    105  CG        40.4510    3.9740   35.0100 C.ar   87  HIS87       0.0817
    106  ND1       41.5260    3.1190   34.9010 N.ar   87  HIS87      -0.2268
    107  CD2       40.0030    3.8460   36.2860 C.ar   87  HIS87       0.1154
    108  CE1       41.7220    2.5040   36.0540 C.ar   87  HIS87       0.1986
    109  NE2       40.8130    2.9250   36.9130 N.ar   87  HIS87      -0.2212
    110  N         37.5670    8.1880   37.8530 N.3    89  TRP89      -0.1241
    111  CA        36.5350    7.4490   38.5540 C.3    89  TRP89       0.1605
    112  C         36.0170    8.1980   39.7560 C.2    89  TRP89       0.2264
    113  O         36.6800    9.1050   40.2740 O.2    89  TRP89      -0.2867
    114  CB        37.1050    6.0900   38.9930 C.3    89  TRP89       0.0550
    115  CG        38.4000    6.2080   39.7640 C.ar   89  TRP89       0.0003
    116  CD1       39.6720    6.1820   39.2540 C.ar   89  TRP89       0.0946
    117  CD2       38.5360    6.4570   41.1740 C.ar   89  TRP89       0.0152
    118  NE1       40.5880    6.4110   40.2580 N.ar   89  TRP89      -0.2442
    119  CE2       39.9190    6.5880   41.4440 C.ar   89  TRP89       0.0810
    120  CE3       37.6140    6.5930   42.2280 C.ar   89  TRP89       0.0012
    121  CZ2       40.4110    6.8530   42.7290 C.ar   89  TRP89       0.0191
    122  CZ3       38.0990    6.8560   43.5070 C.ar   89  TRP89       0.0001
    123  CH2       39.4910    6.9870   43.7410 C.ar   89  TRP89       0.0015
@<TRIPOS>BOND
     1    83    82    2
     2   100   101    1
     3    86    85    2
     4   101   104    1
     5   101   102    1
     6   104   105    1
     7    82    81    1
     8    85    87   am
     9    85    84    1
    10   102   103    2
    11   106   105   ar
    12   106   108   ar
    13   105   107   ar
    14    92    89    1
    15    92    93    1
    16    38    37    2
    17    89    90    1
    18    89    88    1
    19    81    84    1
    20    81    80    1
    21    90    91    2
    22   108   109   ar
    23    93    94   ar
    24    93    95   ar
    25   107   109   ar
    26    37    36    1
    27    94    96   ar
    28    95    97   ar
    29    42    43    1
    30    35    36    1
    31    36    39    1
    32    45    44    2
    33   110   111    1
    34    96    98   ar
    35    44    43    1
    36    97    98   ar
    37    39    41    1
    38    39    40    1
    39    43    46    1
    40    98    99    1
    41   111   114    1
    42   111   112    1
    43    75    74    2
    44   114   115    1
    45    53    54    1
    46   116   115   ar
    47   116   118   ar
    48    59    57    1
    49    74    73    1
    50    56    55    2
    51    46    47    1
    52   112   113    2
    53   115   117   ar
    54    78    76    1
    55   118   119   ar
    56    58    57    1
    57    58    60    1
    58    57    54    1
    59    54    55    1
    60    47    49   ar
    61    47    48   ar
    62    49    51   ar
    63    73    76    1
    64    73    72    1
    65    48    50   ar
    66    76    77    1
    67   117   119   ar
    68   117   120   ar
    69    51    52   ar
    70   119   121   ar
    71    14    13    1
    72    50    52   ar
    73    15    13    1
    74   120   122   ar
    75    77    79    1
    76    13    12    1
    77   121   123   ar
    78    12     9    1
    79    11    10    2
    80    61    62    1
    81    64    63    2
    82    70    69    1
    83   122   123   ar
    84     9    10    1
    85     9     8    1
    86    63    62    1
    87    10    16   am
    88    23    21    1
    89    71    69    1
    90    69    68    2
    91    62    65    1
    92    65    66    1
    93    66    67    1
    94    67    68    1
    95     8     3   am
    96    21    22    1
    97    21    20    1
    98    16    17    1
    99     4     3    2
   100    17    20    1
   101    17    18    1
   102     3     2    1
   103    34    32   ar
   104    34    33   ar
   105    18    19    2
   106     5     2    1
   107     5     6    1
   108    32    30   ar
   109     2     1    1
   110    33    31   ar
   111     7     1    1
   112     7     6    1
   113    30    29   ar
   114    31    29   ar
   115    29    28    1
   116    28    25    1
   117    25    24    1
   118    25    26    1
   119    26    27    2
