@<TRIPOS>MOLECULE
tmp/2areB00.pdb
 94 91 0 0 0
SMALL
GASTEIGER

@<TRIPOS>ATOM
      1  N         -6.1000  -15.6040   -7.5890 N.3    85  ALA85      -0.1231
      2  CA        -4.8110  -14.9330   -7.7310 C.3    85  ALA85       0.1694
      3  C         -4.9430  -13.4580   -7.3710 C.2    85  ALA85       0.2592
      4  O         -6.0510  -12.9290   -7.3520 O.2    85  ALA85      -0.2718
      5  CB        -4.3290  -15.0720   -9.1840 C.3    85  ALA85       0.0304
      6  N         -3.8280  -12.7650   -7.1280 N.am   86  ASP86      -0.1974
      7  CA        -2.4710  -13.3150   -7.1820 C.3    86  ASP86       0.1709
      8  C         -1.7910  -13.4390   -5.8260 C.2    86  ASP86       0.2293
      9  O         -0.8490  -14.2160   -5.6740 O.2    86  ASP86      -0.2864
     10  CB        -1.6170  -12.4320   -8.0780 C.3    86  ASP86       0.1436
     11  CG        -1.7590  -12.8070   -9.5450 C.2    86  ASP86       0.3671
     12  OD1       -1.0220  -13.7130   -9.9860 O.co2  86  ASP86      -0.2456
     13  OD2       -2.6170  -12.2180  -10.2340 O.co2  86  ASP86      -0.2456
     14  N          1.0160   -5.2120  -12.0330 N.3   104  GLY104     -0.1210
     15  CA        -0.1270   -6.0340  -11.6940 C.3   104  GLY104      0.1956
     16  C          0.1390   -7.5320  -11.6870 C.2   104  GLY104      0.2612
     17  O          1.2700   -8.0070  -11.8590 O.2   104  GLY104     -0.2717
     18  N         -0.9260   -8.2920  -11.4630 N.am  105  GLY105     -0.1942
     19  CA        -0.7990   -9.7420  -11.4640 C.3   105  GLY105      0.2014
     20  C          0.2430  -10.3410  -10.5540 C.2   105  GLY105      0.2639
     21  O          0.3140  -10.0240   -9.3640 O.2   105  GLY105     -0.2714
     22  N          1.0630  -11.2200  -11.1220 N.am  106  GLY106     -0.1939
     23  CA         2.0920  -11.8900  -10.3540 C.3   106  GLY106      0.2014
     24  C          3.1770  -10.9860   -9.7970 C.2   106  GLY106      0.2638
     25  O          3.9920  -11.4610   -9.0200 O.2   106  GLY106     -0.2714
     26  N          3.2050   -9.7110  -10.1910 N.am  107  LEU107     -0.1977
     27  CA         4.2160   -8.8110   -9.6420 C.3   107  LEU107      0.1596
     28  C          3.7200   -8.1990   -8.3260 C.2   107  LEU107      0.2287
     29  O          4.4590   -7.4640   -7.6600 O.2   107  LEU107     -0.2864
     30  CB         4.6000   -7.7290  -10.6580 C.3   107  LEU107      0.0297
     31  CG         5.2590   -8.3850  -11.8910 C.3   107  LEU107      0.0022
     32  CD1        5.7880   -7.3090  -12.8160 C.3   107  LEU107      0.0001
     33  CD2        6.3870   -9.3360  -11.4580 C.3   107  LEU107      0.0001
     34  N         -0.8020  -18.0210   -6.7930 N.3   132  PHE132     -0.1241
     35  CA        -0.8450  -18.3420   -8.2120 C.3   132  PHE132      0.1605
     36  C          0.5690  -18.5820   -8.6870 C.2   132  PHE132      0.2264
     37  O          1.4340  -17.7110   -8.5840 O.2   132  PHE132     -0.2867
     38  CB        -1.4990  -17.2000   -8.9700 C.3   132  PHE132      0.0534
     39  CG        -1.7600  -17.5230  -10.4190 C.ar  132  PHE132     -0.0203
     40  CD1       -2.9270  -18.1770  -10.8000 C.ar  132  PHE132     -0.0042
     41  CD2       -0.8120  -17.2080  -11.3890 C.ar  132  PHE132     -0.0042
     42  CE1       -3.1520  -18.5180  -12.1460 C.ar  132  PHE132     -0.0003
     43  CE2       -1.0300  -17.5460  -12.7370 C.ar  132  PHE132     -0.0003
     44  CZ        -2.2020  -18.1990  -13.1040 C.ar  132  PHE132     -0.0000
     45  N          3.5240  -18.2610  -16.7330 N.3   137  SER137     -0.1202
     46  CA         3.5490  -16.8120  -16.5420 C.3   137  SER137      0.2020
     47  C          4.3390  -16.4140  -15.3060 C.2   137  SER137      0.2618
     48  O          5.0890  -15.4420  -15.3280 O.2   137  SER137     -0.2717
     49  CB         2.1290  -16.2440  -16.4390 C.3   137  SER137      0.2103
     50  OG         1.4020  -16.8610  -15.3910 O.3   137  SER137     -0.2182
     51  N          4.1700  -17.1540  -14.2190 N.am  138  ASN138     -0.1974
     52  CA         4.9040  -16.8320  -12.9940 C.3   138  ASN138      0.1688
     53  C          6.1240  -17.7580  -12.9900 C.2   138  ASN138      0.2292
     54  O          6.2690  -18.6400  -12.1450 O.2   138  ASN138     -0.2864
     55  CB         3.9990  -17.0830  -11.7730 C.3   138  ASN138      0.1181
     56  CG         2.9380  -15.9870  -11.5860 C.2   138  ASN138      0.2629
     57  OD1        2.7400  -15.4940  -10.4690 O.2   138  ASN138     -0.2716
     58  ND2        2.2570  -15.5970  -12.6690 N.am  138  ASN138     -0.0877
     59  N          9.1620  -17.4650  -12.1220 N.3   140  TRP140     -0.1241
     60  CA        10.0510  -17.3970  -10.9640 C.3   140  TRP140      0.1605
     61  C          9.5570  -18.1910   -9.7540 C.2   140  TRP140      0.2264
     62  O         10.3140  -18.4530   -8.8130 O.2   140  TRP140     -0.2867
     63  CB        10.2050  -15.9260  -10.5690 C.3   140  TRP140      0.0550
     64  CG         8.8660  -15.2700  -10.4010 C.ar  140  TRP140      0.0003
     65  CD1        8.0390  -15.3530   -9.3060 C.ar  140  TRP140      0.0946
     66  CD2        8.1400  -14.5420  -11.3900 C.ar  140  TRP140      0.0152
     67  NE1        6.8510  -14.7250   -9.5610 N.ar  140  TRP140     -0.2442
     68  CE2        6.8790  -14.2170  -10.8290 C.ar  140  TRP140      0.0810
     69  CE3        8.4240  -14.1340  -12.6960 C.ar  140  TRP140      0.0012
     70  CZ2        5.9060  -13.5030  -11.5380 C.ar  140  TRP140      0.0191
     71  CZ3        7.4540  -13.4240  -13.3980 C.ar  140  TRP140      0.0001
     72  CH2        6.2100  -13.1170  -12.8160 C.ar  140  TRP140      0.0015
     73  N         -4.5220  -10.5250  -11.5810 N.3   220  GLY220     -0.1210
     74  CA        -4.3310  -10.3440  -13.0100 C.3   220  GLY220      0.1956
     75  C         -5.5420  -10.9340  -13.7200 C.2   220  GLY220      0.2612
     76  O         -6.6530  -10.4610  -13.5120 O.2   220  GLY220     -0.2717
     77  N         -5.3490  -11.9650  -14.5390 N.am  221  GLU221     -0.1965
     78  CA        -6.4740  -12.5700  -15.2410 C.3   221  GLU221      0.1733
     79  C         -7.3340  -13.3820  -14.2720 C.2   221  GLU221      0.2616
     80  O         -8.5500  -13.5010  -14.4630 O.2   221  GLU221     -0.2715
     81  CB        -5.9630  -13.4500  -16.3960 C.3   221  GLU221      0.0429
     82  CG        -5.1530  -12.6590  -17.4150 C.3   221  GLU221      0.1163
     83  CD        -4.7080  -13.4830  -18.6160 C.2   221  GLU221      0.3649
     84  OE1       -4.2470  -14.6320  -18.4260 O.co2 221  GLU221     -0.2457
     85  OE2       -4.8060  -12.9640  -19.7490 O.co2 221  GLU221     -0.2457
     86  N         -6.7050  -13.9490  -13.2430 N.am  222  GLN222     -0.1977
     87  CA        -7.4270  -14.7130  -12.2270 C.3   222  GLN222      0.1601
     88  C         -7.5780  -13.7690  -11.0290 C.2   222  GLN222      0.2287
     89  O         -6.8070  -12.8270  -10.8800 O.2   222  GLN222     -0.2864
     90  CB        -6.6540  -15.9720  -11.8340 C.3   222  GLN222      0.0394
     91  CG        -6.7650  -17.1260  -12.8330 C.3   222  GLN222      0.0908
     92  CD        -6.1500  -16.8080  -14.1840 C.2   222  GLN222      0.2608
     93  OE1       -4.9650  -16.4970  -14.2810 O.2   222  GLN222     -0.2717
     94  NE2       -6.9580  -16.8900  -15.2360 N.am  222  GLN222     -0.0878
@<TRIPOS>BOND
     1    85    83   ar
     2    83    84   ar
     3    83    82    1
     4    82    81    1
     5    45    46    1
     6    46    49    1
     7    46    47    1
     8    49    50    1
     9    81    78    1
    10    48    47    2
    11    47    51   am
    12    78    77    1
    13    78    79    1
    14    94    92   am
    15    77    75   am
    16    80    79    2
    17    93    92    2
    18    79    86   am
    19    51    52    1
    20    92    91    1
    21    75    76    2
    22    75    74    1
    23    71    72   ar
    24    71    69   ar
    25    86    87    1
    26    44    43   ar
    27    44    42   ar
    28    74    73    1
    29    52    53    1
    30    52    55    1
    31    53    54    2
    32    91    90    1
    33    72    70   ar
    34    32    31    1
    35    43    41   ar
    36    69    66   ar
    37    58    56   am
    38    87    90    1
    39    87    88    1
    40    42    40   ar
    41    59    60    1
    42    14    15    1
    43    31    33    1
    44    31    30    1
    45    17    16    2
    46    55    56    1
    47    15    16    1
    48    16    18   am
    49    56    57    2
    50    70    68   ar
    51    19    18    1
    52    19    20    1
    53    66    68   ar
    54    66    64   ar
    55    41    39   ar
    56    22    20   am
    57    22    23    1
    58    88    89    2
    59    60    63    1
    60    60    61    1
    61    68    67   ar
    62    40    39   ar
    63    30    27    1
    64    63    64    1
    65    20    21    2
    66    39    38    1
    67    64    65   ar
    68    23    24    1
    69    13    11   ar
    70    26    24   am
    71    26    27    1
    72    12    11   ar
    73    24    25    2
    74    61    62    2
    75    27    28    1
    76    67    65   ar
    77    11    10    1
    78     5     2    1
    79    38    35    1
    80    36    37    2
    81    36    35    1
    82    28    29    2
    83    35    34    1
    84    10     7    1
    85     2     1    1
    86     2     3    1
    87     3     4    2
    88     3     6   am
    89     7     6    1
    90     7     8    1
    91     8     9    2
