@<TRIPOS>MOLECULE
tmp/2artA01.pdb
 198 187 0 0 0
SMALL
GASTEIGER

@<TRIPOS>ATOM
      1  N         14.0900   36.3810   28.2340 N.3    76  GLY76      -0.1210
      2  CA        13.4010   35.2180   27.7110 C.3    76  GLY76       0.1956
      3  C         11.9740   35.1000   28.1960 C.2    76  GLY76       0.2612
      4  O         11.4970   35.9390   28.9570 O.2    76  GLY76      -0.2717
      5  N         11.2980   34.0380   27.7650 N.am   77  GLY77      -0.1942
      6  CA         9.9090   33.8260   28.1450 C.3    77  GLY77       0.2014
      7  C          9.6560   33.0420   29.4200 C.2    77  GLY77       0.2639
      8  O         10.5840   32.6520   30.1300 O.2    77  GLY77      -0.2714
      9  N          8.3770   32.8020   29.6920 N.am   78  ALA78      -0.1963
     10  CA         7.9360   32.0890   30.8840 C.3    78  ALA78       0.1728
     11  C          7.8690   30.5730   30.7190 C.2    78  ALA78       0.2616
     12  O          7.3120   30.0690   29.7440 O.2    78  ALA78      -0.2715
     13  CB         6.5690   32.6190   31.3060 C.3    78  ALA78       0.0334
     14  N          8.4250   29.8440   31.6820 N.am   79  VAL79      -0.1963
     15  CA         8.3970   28.3890   31.6350 C.3    79  VAL79       0.1727
     16  C          7.9000   27.7860   32.9360 C.2    79  VAL79       0.2616
     17  O          7.9560   28.4120   33.9950 O.2    79  VAL79      -0.2715
     18  CB         9.7840   27.7860   31.3140 C.3    79  VAL79       0.0290
     19  CG1       10.1280   28.0450   29.8730 C.3    79  VAL79       0.0023
     20  CG2       10.8510   28.3740   32.2290 C.3    79  VAL79       0.0023
     21  N          7.4060   26.5590   32.8330 N.am   80  TYR80      -0.1960
     22  CA         6.8800   25.8140   33.9650 C.3    80  TYR80       0.1771
     23  C          7.8640   24.7210   34.3540 C.2    80  TYR80       0.2619
     24  O          8.3410   23.9710   33.5000 O.2    80  TYR80      -0.2715
     25  CB         5.5440   25.1730   33.5880 C.3    80  TYR80       0.0574
     26  CG         4.9950   24.2720   34.6620 C.ar   80  TYR80      -0.0198
     27  CD1        4.4450   24.8030   35.8270 C.ar   80  TYR80      -0.0009
     28  CD2        5.0540   22.8820   34.5290 C.ar   80  TYR80      -0.0009
     29  CE1        3.9680   23.9750   36.8350 C.ar   80  TYR80       0.0417
     30  CE2        4.5830   22.0480   35.5250 C.ar   80  TYR80       0.0417
     31  CZ         4.0400   22.5990   36.6760 C.ar   80  TYR80       0.1957
     32  OH         3.5620   21.7770   37.6680 O.3    80  TYR80      -0.2866
     33  N          8.1620   24.6260   35.6440 N.am   81  HIS81      -0.1973
     34  CA         9.0840   23.6090   36.1380 C.3    81  HIS81       0.1656
     35  C          8.4250   22.7200   37.1820 C.2    81  HIS81       0.2291
     36  O          7.5200   23.1470   37.8930 O.2    81  HIS81      -0.2864
     37  CB        10.3140   24.2490   36.8060 C.3    81  HIS81       0.0771
     38  CG        11.2240   24.9790   35.8680 C.ar   81  HIS81       0.0820
     39  ND1       12.3650   25.6210   36.2990 N.ar   81  HIS81      -0.2267
     40  CD2       11.1800   25.1520   34.5250 C.ar   81  HIS81       0.1154
     41  CE1       12.9870   26.1560   35.2630 C.ar   81  HIS81       0.1986
     42  NE2       12.2890   25.8860   34.1750 N.ar   81  HIS81      -0.2212
     43  N         11.4580   18.2980   35.3870 N.3    85  ASP85      -0.1239
     44  CA        12.2340   19.2060   34.5540 C.3    85  ASP85       0.1674
     45  C         13.6610   19.2750   35.0970 C.2    85  ASP85       0.2266
     46  O         13.8730   19.3720   36.3070 O.2    85  ASP85      -0.2867
     47  CB        11.6010   20.6010   34.5770 C.3    85  ASP85       0.1410
     48  CG        12.5290   21.6760   34.0310 C.2    85  ASP85       0.3668
     49  OD1       12.3260   22.1470   32.8830 O.co2  85  ASP85      -0.2456
     50  OD2       13.4720   22.0490   34.7580 O.co2  85  ASP85      -0.2456
     51  N         12.6030   36.2780   19.6720 N.3   129  VAL129     -0.1245
     52  CA        12.3990   36.0550   21.0960 C.3   129  VAL129      0.1561
     53  C         10.9260   35.9890   21.5030 C.2   129  VAL129      0.2260
     54  O         10.5930   35.4350   22.5510 O.2   129  VAL129     -0.2867
     55  CB        13.1060   37.1730   21.9120 C.3   129  VAL129      0.0252
     56  CG1       12.6940   37.1210   23.3760 C.3   129  VAL129      0.0019
     57  CG2       14.6140   37.0180   21.7840 C.3   129  VAL129      0.0019
     58  N          8.4880   34.3700   19.9110 N.3   131  ILE131     -0.1231
     59  CA         7.8280   33.1100   19.5860 C.3   131  ILE131      0.1678
     60  C          8.2120   32.0390   20.6080 C.2   131  ILE131      0.2434
     61  O          9.3780   31.9260   20.9970 O.2   131  ILE131     -0.2733
     62  CB         8.1800   32.6300   18.1550 C.3   131  ILE131      0.0265
     63  CG1        9.6370   32.1790   18.0810 C.3   131  ILE131      0.0019
     64  CG2        7.9410   33.7610   17.1610 C.3   131  ILE131      0.0020
     65  CD1       10.0250   31.6200   16.7160 C.3   131  ILE131      0.0001
     66  N          7.2310   31.2400   21.0610 N.am  132  PRO132     -0.2718
     67  CA         7.4510   30.1740   22.0510 C.3   132  PRO132      0.1535
     68  C          8.4320   29.0610   21.6830 C.2   132  PRO132      0.2598
     69  O          9.2110   28.6200   22.5290 O.2   132  PRO132     -0.2715
     70  CB         6.0420   29.6420   22.3030 C.3   132  PRO132      0.0310
     71  CG         5.3790   29.8360   20.9710 C.3   132  PRO132      0.0237
     72  CD         5.8330   31.2330   20.5920 C.3   132  PRO132      0.0939
     73  N          8.4110   28.6080   20.4340 N.am  133  VAL133     -0.1978
     74  CA         9.3120   27.5320   20.0360 C.3   133  VAL133      0.1596
     75  C         10.0300   27.7850   18.7180 C.2   133  VAL133      0.2287
     76  O          9.8170   28.8040   18.0650 O.2   133  VAL133     -0.2864
     77  CB         8.5480   26.1940   19.9160 C.3   133  VAL133      0.0276
     78  CG1        7.7320   25.9410   21.1790 C.3   133  VAL133      0.0022
     79  CG2        7.6430   26.2220   18.6990 C.3   133  VAL133      0.0022
     80  N         13.1120   28.5430   18.1590 N.3   135  LYS135     -0.1245
     81  CA        14.1080   29.6040   18.1700 C.3   135  LYS135      0.1561
     82  C         15.4770   28.9560   18.2020 C.2   135  LYS135      0.2260
     83  O         15.5930   27.7710   18.5040 O.2   135  LYS135     -0.2867
     84  CB        13.9420   30.4820   19.4050 C.3   135  LYS135      0.0271
     85  CG        12.5900   31.1530   19.5200 C.3   135  LYS135      0.0035
     86  CD        12.5310   32.0240   20.7720 C.3   135  LYS135      0.0206
     87  CE        12.7620   31.2010   22.0250 C.3   135  LYS135      0.1093
     88  NZ        11.7220   30.1490   22.1750 N.3   135  LYS135     -0.1314
     89  N         17.5490   29.3480   20.3510 N.3   137  THR137     -0.1203
     90  CA        17.9000   29.0830   21.7420 C.3   137  THR137      0.1994
     91  C         17.1380   27.8700   22.2410 C.2   137  THR137      0.2617
     92  O         17.3280   27.4380   23.3730 O.2   137  THR137     -0.2717
     93  CB        17.5700   30.2660   22.6790 C.3   137  THR137      0.1784
     94  OG1       16.1680   30.5400   22.6260 O.3   137  THR137     -0.2211
     95  CG2       18.3510   31.5060   22.2810 C.3   137  THR137      0.0376
     96  N         16.2680   27.3340   21.3910 N.am  138  ASP138     -0.1973
     97  CA        15.4630   26.1620   21.7300 C.3   138  ASP138      0.1709
     98  C         16.0610   24.8920   21.1350 C.2   138  ASP138      0.2293
     99  O         16.7170   24.9290   20.0930 O.2   138  ASP138     -0.2864
    100  CB        14.0280   26.2920   21.1860 C.3   138  ASP138      0.1436
    101  CG        13.2550   27.4500   21.7980 C.2   138  ASP138      0.3671
    102  OD1       13.3360   27.6450   23.0300 O.co2 138  ASP138     -0.2456
    103  OD2       12.5440   28.1510   21.0420 O.co2 138  ASP138     -0.2456
    104  N          9.1760   20.9600   21.2230 N.3   145  LYS145     -0.1231
    105  CA        10.2240   21.6340   21.9850 C.3   145  LYS145      0.1693
    106  C         10.4340   20.8590   23.2780 C.2   145  LYS145      0.2592
    107  O          9.4690   20.5340   23.9630 O.2   145  LYS145     -0.2718
    108  CB         9.8250   23.0690   22.3190 C.3   145  LYS145      0.0285
    109  CG        10.8240   23.7770   23.2270 C.3   145  LYS145      0.0035
    110  CD        10.3570   25.1800   23.5660 C.3   145  LYS145      0.0206
    111  CE        11.3730   25.8980   24.4340 C.3   145  LYS145      0.1093
    112  NZ        11.0450   27.3300   24.6230 N.3   145  LYS145     -0.1314
    113  N         11.6890   20.5560   23.5980 N.am  146  ILE146     -0.1966
    114  CA        12.0160   19.8150   24.8160 C.3   146  ILE146      0.1727
    115  C         12.9190   20.6080   25.7660 C.2   146  ILE146      0.2616
    116  O         13.0850   20.2320   26.9260 O.2   146  ILE146     -0.2715
    117  CB        12.7200   18.4540   24.5020 C.3   146  ILE146      0.0290
    118  CG1       14.0260   18.6950   23.7430 C.3   146  ILE146      0.0022
    119  CG2       11.7900   17.5430   23.7120 C.3   146  ILE146      0.0023
    120  CD1       14.8030   17.4170   23.4500 C.3   146  ILE146      0.0001
    121  N         13.5010   21.6970   25.2750 N.am  147  MET147     -0.1963
    122  CA        14.3780   22.5170   26.0940 C.3   147  MET147      0.1736
    123  C         14.4600   23.9610   25.6040 C.2   147  MET147      0.2617
    124  O         14.5930   24.2180   24.4070 O.2   147  MET147     -0.2715
    125  CB        15.7920   21.9200   26.1150 C.3   147  MET147      0.0427
    126  CG        16.7950   22.7010   26.9650 C.3   147  MET147      0.0599
    127  SD        18.5280   22.5500   26.4110 S.3   147  MET147     -0.1393
    128  CE        18.6950   24.0570   25.4620 C.3   147  MET147      0.0692
    129  N         14.3740   24.8960   26.5470 N.am  148  GLY148     -0.1940
    130  CA        14.4920   26.3070   26.2290 C.3   148  GLY148      0.2014
    131  C         15.6950   26.8250   27.0060 C.2   148  GLY148      0.2638
    132  O         16.1150   26.1950   27.9800 O.2   148  GLY148     -0.2714
    133  N         16.2560   27.9560   26.5950 N.am  149  ALA149     -0.1977
    134  CA        17.4120   28.5100   27.2870 C.3   149  ALA149      0.1597
    135  C         17.4800   30.0440   27.2800 C.2   149  ALA149      0.2287
    136  O         16.7690   30.7150   26.5310 O.2   149  ALA149     -0.2864
    137  CB        18.6890   27.9260   26.6880 C.3   149  ALA149      0.0319
    138  N         16.2020   24.8470   30.6250 N.3   163  ALA163     -0.1245
    139  CA        15.1830   24.0310   31.2650 C.3   163  ALA163      0.1562
    140  C         14.8260   22.9080   30.2950 C.2   163  ALA163      0.2260
    141  O         14.3590   23.1590   29.1890 O.2   163  ALA163     -0.2867
    142  CB        13.9540   24.8780   31.5640 C.3   163  ALA163      0.0290
    143  N         12.6080   19.4570   29.6390 N.3   165  LEU165     -0.1245
    144  CA        11.4850   18.6270   30.0520 C.3   165  LEU165      0.1561
    145  C         11.8790   17.1520   29.9180 C.2   165  LEU165      0.2260
    146  O         12.1170   16.6660   28.8110 O.2   165  LEU165     -0.2867
    147  CB        10.2690   18.9290   29.1650 C.3   165  LEU165      0.0270
    148  CG         9.7870   20.3810   29.1780 C.3   165  LEU165      0.0019
    149  CD1        8.9240   20.6740   27.9460 C.3   165  LEU165      0.0001
    150  CD2        9.0450   20.6470   30.4830 C.3   165  LEU165      0.0001
    151  N          1.8060   22.3010   32.6360 N.3   173  LEU173     -0.1245
    152  CA         2.5260   23.4290   32.0620 C.3   173  LEU173      0.1561
    153  C          1.6740   24.2150   31.0760 C.2   173  LEU173      0.2260
    154  O          1.6940   25.4490   31.0750 O.2   173  LEU173     -0.2867
    155  CB         3.8330   22.9470   31.4060 C.3   173  LEU173      0.0270
    156  CG         4.1740   23.0700   29.9150 C.3   173  LEU173      0.0019
    157  CD1        4.0260   24.4940   29.4050 C.3   173  LEU173      0.0001
    158  CD2        5.6150   22.5990   29.7250 C.3   173  LEU173      0.0001
    159  N          0.4940   28.3210   31.6130 N.3   177  LEU177     -0.1245
    160  CA         1.1220   29.3500   30.7890 C.3   177  LEU177      0.1561
    161  C          0.1730   30.0680   29.8330 C.2   177  LEU177      0.2260
    162  O         -0.5130   29.4360   29.0300 O.2   177  LEU177     -0.2867
    163  CB         2.2890   28.7550   29.9990 C.3   177  LEU177      0.0270
    164  CG         3.5440   28.4550   30.8200 C.3   177  LEU177      0.0019
    165  CD1        4.5440   27.7290   29.9590 C.3   177  LEU177      0.0001
    166  CD2        4.1370   29.7530   31.3540 C.3   177  LEU177      0.0001
    167  N         -0.4510   32.0600   26.6430 N.3   179  VAL179     -0.1245
    168  CA         0.2630   32.3030   25.3960 C.3   179  VAL179      0.1561
    169  C         -0.6620   32.7240   24.2600 C.2   179  VAL179      0.2260
    170  O         -0.8720   33.9200   24.0330 O.2   179  VAL179     -0.2867
    171  CB         1.0680   31.0520   24.9550 C.3   179  VAL179      0.0252
    172  CG1        2.0090   31.4160   23.8140 C.3   179  VAL179      0.0019
    173  CG2        1.8610   30.4950   26.1320 C.3   179  VAL179      0.0019
    174  N         -0.3610   24.8170   23.1060 N.3   182  THR182     -0.1218
    175  CA         0.9110   24.7690   23.8240 C.3   182  THR182      0.1862
    176  C          1.2350   23.3120   24.1400 C.2   182  THR182      0.2287
    177  O          2.3920   22.8840   24.0680 O.2   182  THR182     -0.2866
    178  CB         0.8390   25.5560   25.1550 C.3   182  THR182      0.1770
    179  OG1        0.6840   26.9520   24.8780 O.3   182  THR182     -0.2211
    180  CG2        2.1010   25.3410   25.9830 C.3   182  THR182      0.0375
    181  N          2.9170   21.6270   21.3170 N.3   185  ARG185     -0.1231
    182  CA         4.2080   22.0830   20.8310 C.3   185  ARG185      0.1694
    183  C          5.3880   21.6490   21.6790 C.2   185  ARG185      0.2591
    184  O          6.5340   21.8040   21.2740 O.2   185  ARG185     -0.2718
    185  CB         4.2040   23.6050   20.6720 C.3   185  ARG185      0.0321
    186  CG         4.3320   24.0330   19.2180 C.3   185  ARG185      0.0489
    187  CD         5.6800   23.5760   18.6480 C.3   185  ARG185      0.2205
    188  NE         5.6350   23.2510   17.2210 N.pl3 185  ARG185     -0.0865
    189  CZ         5.2690   24.0890   16.2560 C.cat 185  ARG185      0.5346
    190  NH1        4.9040   25.3330   16.5400 N.pl3 185  ARG185      0.1354
    191  NH2        5.2730   23.6760   14.9950 N.pl3 185  ARG185      0.1354
    192  N          5.1040   21.0860   22.8460 N.am  186  VAL186     -0.1980
    193  CA         6.1520   20.6350   23.7510 C.3   186  VAL186      0.1595
    194  C          6.1690   19.1150   23.8680 C.2   186  VAL186      0.2287
    195  O          5.2370   18.4480   23.4460 O.2   186  VAL186     -0.2864
    196  CB         5.9500   21.2180   25.1670 C.3   186  VAL186      0.0276
    197  CG1        5.9470   22.7390   25.1150 C.3   186  VAL186      0.0022
    198  CG2        4.6510   20.6910   25.7570 C.3   186  VAL186      0.0022
@<TRIPOS>BOND
     1   191   189    1
     2   189   190    1
     3   189   188    2
     4    65    63    1
     5    64    62    1
     6   188   187    1
     7    76    75    2
     8    63    62    1
     9    62    59    1
    10    80    81    1
    11    81    82    1
    12    81    84    1
    13    82    83    2
    14   187   186    1
    15    79    77    1
    16    75    74    1
    17   186   185    1
    18    84    85    1
    19    85    86    1
    20    59    58    1
    21    59    60    1
    22    51    52    1
    23    77    74    1
    24    77    78    1
    25    74    73    1
    26    99    98    2
    27    89    90    1
    28    73    68   am
    29    72    71    1
    30    72    66    1
    31    60    61    2
    32    60    66   am
    33   185   182    1
    34    86    87    1
    35   182   181    1
    36   182   183    1
    37    71    70    1
    38   103   101   ar
    39    66    67    1
    40    52    53    1
    41    52    55    1
    42    98    97    1
    43   100    97    1
    44   100   101    1
    45   104   105    1
    46   184   183    2
    47    96    97    1
    48    96    91   am
    49    53    54    2
    50   183   192   am
    51    68    67    1
    52    68    69    2
    53    90    91    1
    54    90    93    1
    55    57    55    1
    56   101   102   ar
    57    55    56    1
    58   105   108    1
    59   105   106    1
    60    87    88    1
    61    67    70    1
    62    91    92    2
    63    95    93    1
    64   108   109    1
    65    94    93    1
    66   192   193    1
    67   174   175    1
    68   109   110    1
    69   106   113   am
    70   106   107    2
    71   195   194    2
    72   120   118    1
    73   110   111    1
    74   113   114    1
    75   119   117    1
    76   118   117    1
    77   193   194    1
    78   193   196    1
    79   172   171    1
    80   175   176    1
    81   175   178    1
    82   170   169    2
    83   177   176    2
    84   169   168    1
    85   124   123    2
    86   111   112    1
    87   117   114    1
    88   114   115    1
    89   179   178    1
    90   171   168    1
    91   171   173    1
    92   197   196    1
    93   178   180    1
    94   196   198    1
    95   121   115   am
    96   121   122    1
    97   168   167    1
    98   128   127    1
    99   123   122    1
   100   123   129   am
   101   115   116    2
   102   122   125    1
   103   125   126    1
   104   130   129    1
   105   130   131    1
   106   127   126    1
   107   136   135    2
   108   133   131   am
   109   133   134    1
   110   137   134    1
   111   131   132    2
   112   135   134    1
   113     2     3    1
   114     2     1    1
   115     5     6    1
   116     5     3   am
   117   149   148    1
   118     6     7    1
   119     3     4    2
   120   146   145    2
   121   162   161    2
   122   147   148    1
   123   147   144    1
   124   148   150    1
   125   141   140    2
   126   157   156    1
   127     7     9   am
   128     7     8    2
   129   143   144    1
   130     9    10    1
   131   158   156    1
   132    12    11    2
   133   161   160    1
   134    19    18    1
   135   156   155    1
   136   145   144    1
   137   165   164    1
   138   163   160    1
   139   163   164    1
   140   140   139    1
   141   138   139    1
   142    11    10    1
   143    11    14   am
   144   160   159    1
   145   164   166    1
   146    10    13    1
   147   154   153    2
   148   153   152    1
   149   139   142    1
   150    18    15    1
   151    18    20    1
   152   155   152    1
   153    15    14    1
   154    15    16    1
   155   152   151    1
   156    21    16   am
   157    21    22    1
   158    49    48   ar
   159    16    17    2
   160    24    23    2
   161    25    22    1
   162    25    26    1
   163    22    23    1
   164    48    47    1
   165    48    50   ar
   166    42    40   ar
   167    42    41   ar
   168    23    33   am
   169    40    38   ar
   170    28    26   ar
   171    28    30   ar
   172    44    47    1
   173    44    45    1
   174    44    43    1
   175    26    27   ar
   176    45    46    2
   177    41    39   ar
   178    30    31   ar
   179    33    34    1
   180    27    29   ar
   181    38    39   ar
   182    38    37    1
   183    34    37    1
   184    34    35    1
   185    31    29   ar
   186    31    32    1
   187    35    36    2
