@<TRIPOS>MOLECULE
tmp/2aruA00.pdb
 211 199 0 0 0
SMALL
GASTEIGER

@<TRIPOS>ATOM
      1  N         13.4180   35.4860   36.8500 N.3    72  ARG72      -0.1245
      2  CA        14.8590   35.2700   36.7390 C.3    72  ARG72       0.1563
      3  C         15.6770   36.4890   36.2840 C.2    72  ARG72       0.2260
      4  O         15.1340   37.5020   35.8410 O.2    72  ARG72      -0.2867
      5  CB        15.1380   34.0840   35.8070 C.3    72  ARG72       0.0307
      6  CG        14.6170   34.2660   34.3930 C.3    72  ARG72       0.0489
      7  CD        15.0520   33.1290   33.4670 C.3    72  ARG72       0.2205
      8  NE        14.6140   33.3730   32.0970 N.pl3  72  ARG72      -0.0865
      9  CZ        13.3570   33.2730   31.6770 C.cat  72  ARG72       0.5346
     10  NH1       12.3920   32.9170   32.5170 N.pl3  72  ARG72       0.1354
     11  NH2       13.0570   33.5560   30.4170 N.pl3  72  ARG72       0.1354
     12  N         13.9820   36.5690   28.0710 N.3    76  GLY76      -0.1210
     13  CA        13.3760   35.4010   27.4550 C.3    76  GLY76       0.1956
     14  C         11.9160   35.2850   27.8410 C.2    76  GLY76       0.2612
     15  O         11.3830   36.1440   28.5500 O.2    76  GLY76      -0.2717
     16  N         11.2620   34.2210   27.3880 N.am   77  GLY77      -0.1942
     17  CA         9.8570   34.0530   27.7120 C.3    77  GLY77       0.2014
     18  C          9.5510   33.4920   29.0870 C.2    77  GLY77       0.2639
     19  O         10.4180   33.4180   29.9620 O.2    77  GLY77      -0.2714
     20  N          8.3010   33.0770   29.2600 N.am   78  ALA78      -0.1963
     21  CA         7.8100   32.5260   30.5130 C.3    78  ALA78       0.1728
     22  C          7.7000   31.0150   30.4130 C.2    78  ALA78       0.2616
     23  O          7.1100   30.5010   29.4620 O.2    78  ALA78      -0.2715
     24  CB         6.4450   33.1190   30.8220 C.3    78  ALA78       0.0334
     25  N          8.2590   30.3060   31.3900 N.am   79  VAL79      -0.1963
     26  CA         8.2030   28.8500   31.3990 C.3    79  VAL79       0.1727
     27  C          7.5480   28.2730   32.6310 C.2    79  VAL79       0.2616
     28  O          7.4180   28.9310   33.6630 O.2    79  VAL79      -0.2715
     29  CB         9.5910   28.2140   31.3440 C.3    79  VAL79       0.0290
     30  CG1        9.9470   27.8880   29.9370 C.3    79  VAL79       0.0023
     31  CG2       10.6170   29.1480   31.9500 C.3    79  VAL79       0.0023
     32  N          7.1570   27.0140   32.5120 N.am   80  TYR80      -0.1960
     33  CA         6.5470   26.2950   33.6100 C.3    80  TYR80       0.1771
     34  C          7.5050   25.1860   33.9560 C.2    80  TYR80       0.2619
     35  O          7.9160   24.4210   33.0830 O.2    80  TYR80      -0.2715
     36  CB         5.2150   25.6700   33.2090 C.3    80  TYR80       0.0574
     37  CG         4.6610   24.7490   34.2720 C.ar   80  TYR80      -0.0198
     38  CD1        3.9200   25.2520   35.3380 C.ar   80  TYR80      -0.0009
     39  CD2        4.8910   23.3770   34.2170 C.ar   80  TYR80      -0.0009
     40  CE1        3.4130   24.4080   36.3250 C.ar   80  TYR80       0.0417
     41  CE2        4.3980   22.5260   35.1910 C.ar   80  TYR80       0.0417
     42  CZ         3.6550   23.0440   36.2450 C.ar   80  TYR80       0.1957
     43  OH         3.1500   22.2000   37.2110 O.3    80  TYR80      -0.2866
     44  N          7.8540   25.1090   35.2350 N.am   81  HIS81      -0.1973
     45  CA         8.7510   24.0790   35.7280 C.3    81  HIS81       0.1656
     46  C          8.0550   23.2160   36.7810 C.2    81  HIS81       0.2291
     47  O          7.1440   23.6700   37.4800 O.2    81  HIS81      -0.2864
     48  CB         9.9880   24.6980   36.3990 C.3    81  HIS81       0.0771
     49  CG        10.9380   25.3840   35.4660 C.ar   81  HIS81       0.0820
     50  ND1       12.1930   25.7930   35.8650 N.ar   81  HIS81      -0.2267
     51  CD2       10.8140   25.7650   34.1730 C.ar   81  HIS81       0.1154
     52  CE1       12.8010   26.3970   34.8600 C.ar   81  HIS81       0.1986
     53  NE2       11.9860   26.3940   33.8210 N.ar   81  HIS81      -0.2212
     54  N         11.0680   18.5630   35.1120 N.3    85  ASP85      -0.1239
     55  CA        11.9360   19.4290   34.3470 C.3    85  ASP85       0.1674
     56  C         13.3390   19.4160   34.9520 C.2    85  ASP85       0.2266
     57  O         13.5020   19.5480   36.1570 O.2    85  ASP85      -0.2867
     58  CB        11.3900   20.8430   34.3720 C.3    85  ASP85       0.1410
     59  CG        12.2180   21.7880   33.5360 C.2    85  ASP85       0.3668
     60  OD1       11.8190   22.0440   32.3750 O.co2  85  ASP85      -0.2456
     61  OD2       13.2760   22.2620   34.0310 O.co2  85  ASP85      -0.2456
     62  N         12.6410   36.1390   19.8400 N.3   129  VAL129     -0.1231
     63  CA        12.4110   35.8870   21.2510 C.3   129  VAL129      0.1692
     64  C         10.9290   35.7460   21.5790 C.2   129  VAL129      0.2593
     65  O         10.5630   35.0540   22.5230 O.2   129  VAL129     -0.2718
     66  CB        13.0130   37.0450   22.0780 C.3   129  VAL129      0.0266
     67  CG1       12.8420   36.7940   23.5630 C.3   129  VAL129      0.0020
     68  CG2       14.4790   37.2140   21.7090 C.3   129  VAL129      0.0020
     69  N         10.0750   36.3930   20.7960 N.am  130  SER130     -0.1938
     70  CA         8.6460   36.3380   21.0630 C.3   130  SER130      0.2055
     71  C          7.9800   35.0070   20.7310 C.2   130  SER130      0.2643
     72  O          7.0780   34.5800   21.4550 O.2   130  SER130     -0.2714
     73  CB         7.9160   37.4700   20.3290 C.3   130  SER130      0.2130
     74  OG         7.8440   37.2210   18.9380 O.3   130  SER130     -0.2179
     75  N          8.3990   34.3450   19.6550 N.am  131  ILE131     -0.1963
     76  CA         7.7690   33.0710   19.3000 C.3   131  ILE131      0.1712
     77  C          8.0900   32.0060   20.3450 C.2   131  ILE131      0.2458
     78  O          9.2220   31.9150   20.8200 O.2   131  ILE131     -0.2730
     79  CB         8.2140   32.5650   17.9080 C.3   131  ILE131      0.0289
     80  CG1        9.6660   32.1040   17.9490 C.3   131  ILE131      0.0022
     81  CG2        8.0540   33.6740   16.8770 C.3   131  ILE131      0.0023
     82  CD1       10.1130   31.4600   16.6610 C.3   131  ILE131      0.0001
     83  N          7.0910   31.1830   20.7150 N.am  132  PRO132     -0.2716
     84  CA         7.2420   30.1120   21.7150 C.3   132  PRO132      0.1536
     85  C          8.2080   28.9710   21.3950 C.2   132  PRO132      0.2598
     86  O          8.9820   28.5510   22.2540 O.2   132  PRO132     -0.2715
     87  CB         5.8080   29.6110   21.9090 C.3   132  PRO132      0.0310
     88  CG         5.1720   29.8660   20.5640 C.3   132  PRO132      0.0237
     89  CD         5.7040   31.2420   20.2120 C.3   132  PRO132      0.0939
     90  N          8.1770   28.4750   20.1660 N.am  133  VAL133     -0.1978
     91  CA         9.0500   27.3650   19.8090 C.3   133  VAL133      0.1596
     92  C          9.8670   27.6120   18.5420 C.2   133  VAL133      0.2287
     93  O          9.6110   28.5580   17.7870 O.2   133  VAL133     -0.2864
     94  CB         8.2240   26.0580   19.6450 C.3   133  VAL133      0.0276
     95  CG1        7.2370   25.9200   20.7940 C.3   133  VAL133      0.0022
     96  CG2        7.4800   26.0640   18.3420 C.3   133  VAL133      0.0022
     97  N         12.9950   28.5450   18.3430 N.3   135  LYS135     -0.1245
     98  CA        13.9350   29.6500   18.4600 C.3   135  LYS135      0.1561
     99  C         15.3320   29.0490   18.4530 C.2   135  LYS135      0.2260
    100  O         15.5040   27.8830   18.7840 O.2   135  LYS135     -0.2867
    101  CB        13.7030   30.4110   19.7650 C.3   135  LYS135      0.0271
    102  CG        12.3090   30.9850   19.8970 C.3   135  LYS135      0.0035
    103  CD        12.2040   31.9410   21.0770 C.3   135  LYS135      0.0206
    104  CE        12.3830   31.2190   22.3860 C.3   135  LYS135      0.1093
    105  NZ        11.5100   30.0370   22.3850 N.3   135  LYS135     -0.1314
    106  N         17.3850   29.4310   20.4640 N.3   137  THR137     -0.1203
    107  CA        17.7210   29.1690   21.8610 C.3   137  THR137      0.1994
    108  C         17.0200   27.9100   22.3510 C.2   137  THR137      0.2617
    109  O         17.2350   27.4760   23.4840 O.2   137  THR137     -0.2717
    110  CB        17.3140   30.3280   22.8000 C.3   137  THR137      0.1784
    111  OG1       15.9100   30.5680   22.6820 O.3   137  THR137     -0.2211
    112  CG2       18.0820   31.5920   22.4650 C.3   137  THR137      0.0376
    113  N         16.1790   27.3290   21.5010 N.am  138  ASP138     -0.1973
    114  CA        15.4720   26.1070   21.8600 C.3   138  ASP138      0.1709
    115  C         16.1320   24.8850   21.2350 C.2   138  ASP138      0.2293
    116  O         16.9180   24.9850   20.2890 O.2   138  ASP138     -0.2864
    117  CB        14.0240   26.1230   21.3630 C.3   138  ASP138      0.1436
    118  CG        13.1880   27.2250   21.9740 C.2   138  ASP138      0.3671
    119  OD1       13.2880   27.4660   23.1950 O.co2 138  ASP138     -0.2456
    120  OD2       12.4000   27.8300   21.2110 O.co2 138  ASP138     -0.2456
    121  N          9.1580   20.9850   21.0450 N.3   145  LYS145     -0.1245
    122  CA        10.2120   21.6360   21.8170 C.3   145  LYS145      0.1561
    123  C         10.4140   20.8590   23.1030 C.2   145  LYS145      0.2260
    124  O          9.4450   20.5730   23.8050 O.2   145  LYS145     -0.2867
    125  CB         9.8390   23.0800   22.1650 C.3   145  LYS145      0.0271
    126  CG        10.8200   23.7250   23.1470 C.3   145  LYS145      0.0035
    127  CD        10.4000   25.1240   23.5440 C.3   145  LYS145      0.0206
    128  CE        11.3390   25.6870   24.6080 C.3   145  LYS145      0.1093
    129  NZ        11.0610   27.1200   24.8800 N.3   145  LYS145     -0.1314
    130  N         13.4130   21.6720   25.1360 N.3   147  MET147     -0.1230
    131  CA        14.2750   22.4690   25.9930 C.3   147  MET147      0.1702
    132  C         14.3030   23.9320   25.5920 C.2   147  MET147      0.2593
    133  O         14.3290   24.2650   24.4200 O.2   147  MET147     -0.2718
    134  CB        15.7020   21.9050   25.9600 C.3   147  MET147      0.0401
    135  CG        16.6590   22.5000   26.9880 C.3   147  MET147      0.0596
    136  SD        18.4000   22.4790   26.4220 S.3   147  MET147     -0.1393
    137  CE        18.5180   24.1150   25.7400 C.3   147  MET147      0.0692
    138  N         14.2920   24.7990   26.5940 N.am  148  GLY148     -0.1942
    139  CA        14.3580   26.2280   26.3650 C.3   148  GLY148      0.2014
    140  C         15.5650   26.7740   27.1090 C.2   148  GLY148      0.2639
    141  O         16.0400   26.1640   28.0750 O.2   148  GLY148     -0.2714
    142  N         16.0640   27.9250   26.6770 N.am  149  ALA149     -0.1963
    143  CA        17.2350   28.5000   27.3170 C.3   149  ALA149      0.1728
    144  C         17.3330   30.0200   27.2190 C.2   149  ALA149      0.2616
    145  O         16.7530   30.6430   26.3400 O.2   149  ALA149     -0.2715
    146  CB        18.5000   27.8540   26.7350 C.3   149  ALA149      0.0334
    147  N         18.0870   30.5990   28.1470 N.am  150  ALA150     -0.1977
    148  CA        18.3180   32.0380   28.2030 C.3   150  ALA150      0.1597
    149  C         19.7370   32.2610   28.7410 C.2   150  ALA150      0.2287
    150  O         20.3750   31.3280   29.2350 O.2   150  ALA150     -0.2864
    151  CB        17.2900   32.6930   29.1130 C.3   150  ALA150      0.0319
    152  N         21.6820   29.1620   30.9690 N.3   161  HIS161     -0.1241
    153  CA        20.9020   28.2010   31.7390 C.3   161  HIS161      0.1621
    154  C         19.7420   27.6720   30.9150 C.2   161  HIS161      0.2264
    155  O         19.1390   28.3980   30.1350 O.2   161  HIS161     -0.2867
    156  CB        20.3990   28.8210   33.0390 C.3   161  HIS161      0.0745
    157  CG        19.6250   30.0800   32.8460 C.ar  161  HIS161      0.0817
    158  ND1       18.3870   30.1050   32.2450 N.ar  161  HIS161     -0.2268
    159  CD2       19.9130   31.3620   33.1740 C.ar  161  HIS161      0.1154
    160  CE1       17.9420   31.3480   32.2110 C.ar  161  HIS161      0.1986
    161  NE2       18.8500   32.1310   32.7680 N.ar  161  HIS161     -0.2212
    162  N         16.2510   24.6910   30.4980 N.3   163  ALA163     -0.1245
    163  CA        15.1710   23.9410   31.1030 C.3   163  ALA163      0.1562
    164  C         14.7480   22.8650   30.1040 C.2   163  ALA163      0.2260
    165  O         14.2160   23.1640   29.0330 O.2   163  ALA163     -0.2867
    166  CB        13.9990   24.8670   31.4280 C.3   163  ALA163      0.0290
    167  N         12.5560   19.3500   29.3520 N.3   165  LEU165     -0.1245
    168  CA        11.3700   18.6160   29.7430 C.3   165  LEU165      0.1561
    169  C         11.6260   17.1180   29.6410 C.2   165  LEU165      0.2260
    170  O         11.6290   16.5550   28.5430 O.2   165  LEU165     -0.2867
    171  CB        10.2100   19.0190   28.8140 C.3   165  LEU165      0.0270
    172  CG         9.7780   20.4960   28.8110 C.3   165  LEU165      0.0019
    173  CD1        8.8650   20.7770   27.6420 C.3   165  LEU165      0.0001
    174  CD2        9.0700   20.8210   30.1330 C.3   165  LEU165      0.0001
    175  N          1.6570   22.6530   32.0530 N.3   173  LEU173     -0.1245
    176  CA         2.4960   23.7060   31.5030 C.3   173  LEU173      0.1561
    177  C          1.6500   24.5610   30.5710 C.2   173  LEU173      0.2260
    178  O          1.5650   25.7770   30.7310 O.2   173  LEU173     -0.2867
    179  CB         3.7100   23.1060   30.7730 C.3   173  LEU173      0.0270
    180  CG         4.0210   23.3640   29.2960 C.3   173  LEU173      0.0019
    181  CD1        4.0020   24.8300   28.9480 C.3   173  LEU173      0.0001
    182  CD2        5.3970   22.7860   29.0210 C.3   173  LEU173      0.0001
    183  N          0.5900   28.8550   31.1840 N.3   177  LEU177     -0.1245
    184  CA         1.1820   29.8890   30.3250 C.3   177  LEU177      0.1561
    185  C          0.2780   30.3890   29.1910 C.2   177  LEU177      0.2260
    186  O         -0.2510   29.5960   28.4040 O.2   177  LEU177     -0.2867
    187  CB         2.5080   29.3860   29.7330 C.3   177  LEU177      0.0270
    188  CG         3.6460   29.0430   30.7060 C.3   177  LEU177      0.0019
    189  CD1        3.2110   27.9250   31.6320 C.3   177  LEU177      0.0001
    190  CD2        4.8880   28.6180   29.9360 C.3   177  LEU177      0.0001
    191  N         -0.3640   32.3050   25.6510 N.3   179  VAL179     -0.1245
    192  CA         0.3770   32.5580   24.4140 C.3   179  VAL179      0.1561
    193  C         -0.5870   32.7900   23.2510 C.2   179  VAL179      0.2260
    194  O         -0.7650   33.9260   22.7960 O.2   179  VAL179     -0.2867
    195  CB         1.3060   31.3750   24.0370 C.3   179  VAL179      0.0252
    196  CG1        2.3470   31.8460   23.0230 C.3   179  VAL179      0.0019
    197  CG2        1.9700   30.7930   25.2810 C.3   179  VAL179      0.0019
    198  N         -0.2610   24.8410   21.7710 N.3   182  THR182     -0.1218
    199  CA         0.9990   24.8490   22.5010 C.3   182  THR182      0.1862
    200  C          1.3200   23.3990   22.8710 C.2   182  THR182      0.2287
    201  O          2.3930   22.8850   22.5410 O.2   182  THR182     -0.2866
    202  CB         0.8930   25.7160   23.7830 C.3   182  THR182      0.1770
    203  OG1       -0.3070   25.3830   24.4970 O.3   182  THR182     -0.2211
    204  CG2        0.8700   27.1940   23.4260 C.3   182  THR182      0.0375
    205  N          5.1760   21.0290   22.2120 N.3   186  VAL186     -0.1245
    206  CA         6.2210   20.6140   23.1520 C.3   186  VAL186      0.1561
    207  C          6.1730   19.1120   23.3850 C.2   186  VAL186      0.2260
    208  O          5.2250   18.4440   22.9770 O.2   186  VAL186     -0.2867
    209  CB         6.0520   21.3040   24.5180 C.3   186  VAL186      0.0252
    210  CG1        6.1120   22.8260   24.3480 C.3   186  VAL186      0.0019
    211  CG2        4.7280   20.8720   25.1460 C.3   186  VAL186      0.0019
@<TRIPOS>BOND
     1    82    80    1
     2    81    79    1
     3    93    92    2
     4    79    80    1
     5    79    76    1
     6    96    94    1
     7    97    98    1
     8    99    98    1
     9    99   100    2
    10    98   101    1
    11    92    91    1
    12    74    73    1
    13    76    75    1
    14    76    77    1
    15    94    91    1
    16    94    95    1
    17    75    71   am
    18   101   102    1
    19    91    90    1
    20    62    63    1
    21   102   103    1
    22    90    85   am
    23    89    88    1
    24    89    83    1
    25   116   115    2
    26    73    70    1
    27    77    83   am
    28    77    78    2
    29   106   107    1
    30    88    87    1
    31    83    84    1
    32    71    70    1
    33    71    72    2
    34    69    70    1
    35    69    64   am
    36   121   122    1
    37   103   104    1
    38   120   118   ar
    39   115   114    1
    40    63    64    1
    41    63    66    1
    42   117   114    1
    43   117   118    1
    44    85    84    1
    45    85    86    2
    46   113   114    1
    47   113   108   am
    48    64    65    2
    49    68    66    1
    50    84    87    1
    51   198   199    1
    52   122   125    1
    53   122   123    1
    54   107   108    1
    55   107   110    1
    56   118   119   ar
    57    66    67    1
    58   125   126    1
    59   205   206    1
    60   108   109    2
    61   105   104    1
    62   112   110    1
    63   199   200    1
    64   199   202    1
    65   201   200    2
    66   111   110    1
    67   194   193    2
    68   208   207    2
    69   196   195    1
    70   123   124    2
    71   126   127    1
    72   206   207    1
    73   206   209    1
    74   193   192    1
    75   204   202    1
    76   127   128    1
    77   202   203    1
    78   195   192    1
    79   195   197    1
    80   210   209    1
    81   192   191    1
    82   133   132    2
    83   209   211    1
    84   128   129    1
    85   130   131    1
    86   132   131    1
    87   132   138   am
    88   137   136    1
    89   134   131    1
    90   134   135    1
    91   145   144    2
    92   139   138    1
    93   139   140    1
    94   136   135    1
    95   142   140   am
    96   142   143    1
    97   146   143    1
    98   140   141    2
    99   144   143    1
   100   144   147   am
   101    16    17    1
   102    16    14   am
   103    13    14    1
   104    13    12    1
   105   173   172    1
   106    17    18    1
   107    14    15    2
   108   147   148    1
   109   148   149    1
   110   148   151    1
   111   186   185    2
   112   170   169    2
   113   149   150    2
   114   172   171    1
   115   172   174    1
   116   171   168    1
   117   181   180    1
   118   182   180    1
   119   165   164    2
   120    18    20   am
   121    18    19    2
   122   185   184    1
   123    20    21    1
   124   180   179    1
   125   167   168    1
   126    23    22    2
   127   169   168    1
   128   187   184    1
   129   187   188    1
   130   190   188    1
   131    30    29    1
   132   164   163    1
   133   155   154    2
   134   184   183    1
   135    22    21    1
   136    22    25   am
   137    11     9    1
   138   162   163    1
   139    21    24    1
   140   177   178    2
   141   177   176    1
   142   188   189    1
   143   179   176    1
   144   154   153    1
   145   152   153    1
   146   163   166    1
   147    29    26    1
   148    29    31    1
   149    25    26    1
   150    26    27    1
   151   176   175    1
   152     9     8    2
   153     9    10    1
   154   153   156    1
   155     8     7    1
   156   160   158   ar
   157   160   161   ar
   158   158   157   ar
   159    60    59   ar
   160    32    27   am
   161    32    33    1
   162    27    28    2
   163   161   159   ar
   164   157   156    1
   165   157   159   ar
   166    35    34    2
   167    36    33    1
   168    36    37    1
   169     7     6    1
   170    59    61   ar
   171    59    58    1
   172    33    34    1
   173    53    51   ar
   174    53    52   ar
   175    34    44   am
   176    51    49   ar
   177    39    37   ar
   178    39    41   ar
   179    37    38   ar
   180    55    58    1
   181    55    56    1
   182    55    54    1
   183     6     5    1
   184    52    50   ar
   185    56    57    2
   186    41    42   ar
   187    44    45    1
   188    38    40   ar
   189    49    50   ar
   190    49    48    1
   191    45    48    1
   192    45    46    1
   193     5     2    1
   194     4     3    2
   195    42    40   ar
   196    42    43    1
   197     3     2    1
   198     2     1    1
   199    46    47    2
