@<TRIPOS>MOLECULE
tmp/2arxB00.pdb
 158 152 0 0 0
SMALL
GASTEIGER

@<TRIPOS>ATOM
      1  N         -8.1990   -7.6460  -12.9960 N.3    45  SER45      -0.1217
      2  CA        -7.4560   -6.4170  -13.2430 C.3    45  SER45       0.1889
      3  C         -7.6170   -5.3400  -12.1900 C.2    45  SER45       0.2288
      4  O         -8.2140   -4.2850  -12.4410 O.2    45  SER45      -0.2866
      5  CB        -7.8320   -5.8340  -14.6100 C.3    45  SER45       0.2089
      6  OG        -7.3190   -6.6370  -15.6500 O.3    45  SER45      -0.2183
      7  N        -13.5950  -19.0640   -7.9470 N.3    81  LEU81      -0.1231
      8  CA       -12.7140  -19.7840   -8.8640 C.3    81  LEU81       0.1693
      9  C        -11.8770  -20.8180   -8.1320 C.2    81  LEU81       0.2593
     10  O        -11.6680  -20.7180   -6.9250 O.2    81  LEU81      -0.2718
     11  CB       -11.7660  -18.8120   -9.5640 C.3    81  LEU81       0.0284
     12  CG       -12.3780  -17.6530  -10.3410 C.3    81  LEU81       0.0019
     13  CD1      -11.2610  -16.7860  -10.8930 C.3    81  LEU81       0.0001
     14  CD2      -13.2630  -18.1880  -11.4640 C.3    81  LEU81       0.0001
     15  N        -11.3800  -21.8040   -8.8690 N.am   82  SER82      -0.1938
     16  CA       -10.5500  -22.8410   -8.2670 C.3    82  SER82       0.2055
     17  C         -9.1110  -22.3330   -8.1250 C.2    82  SER82       0.2643
     18  O         -8.3190  -22.8920   -7.3700 O.2    82  SER82      -0.2714
     19  CB       -10.5640  -24.0970   -9.1420 C.3    82  SER82       0.2130
     20  OG       -10.0530  -23.8010  -10.4310 O.3    82  SER82      -0.2179
     21  N         -8.7910  -21.2600   -8.8440 N.am   83  ASN83      -0.1971
     22  CA        -7.4490  -20.6930   -8.8290 C.3    83  ASN83       0.1688
     23  C         -7.4230  -19.1820   -8.5760 C.2    83  ASN83       0.2292
     24  O         -6.9240  -18.4070   -9.3910 O.2    83  ASN83      -0.2864
     25  CB        -6.7450  -21.0430  -10.1540 C.3    83  ASN83       0.1181
     26  CG        -7.5550  -20.6310  -11.3790 C.2    83  ASN83       0.2629
     27  OD1       -8.7510  -20.3440  -11.2790 O.2    83  ASN83      -0.2716
     28  ND2       -6.9110  -20.6270  -12.5490 N.am   83  ASN83      -0.0877
     29  N         -6.4580  -15.5460   -7.5710 N.3    85  ALA85      -0.1231
     30  CA        -5.1660  -14.8710   -7.6850 C.3    85  ALA85       0.1694
     31  C         -5.3260  -13.3980   -7.3100 C.2    85  ALA85       0.2592
     32  O         -6.4460  -12.8970   -7.2670 O.2    85  ALA85      -0.2718
     33  CB        -4.6510  -14.9990   -9.1220 C.3    85  ALA85       0.0304
     34  N         -4.2230  -12.6880   -7.0700 N.am   86  ASP86      -0.1974
     35  CA        -2.8670  -13.2290   -7.1490 C.3    86  ASP86       0.1709
     36  C         -2.1500  -13.3810   -5.8220 C.2    86  ASP86       0.2293
     37  O         -1.1810  -14.1310   -5.7230 O.2    86  ASP86      -0.2864
     38  CB        -2.0240  -12.3580   -8.0720 C.3    86  ASP86       0.1436
     39  CG        -2.1280  -12.7900   -9.5190 C.2    86  ASP86       0.3671
     40  OD1       -1.4970  -13.8120   -9.8630 O.co2  86  ASP86      -0.2456
     41  OD2       -2.8480  -12.1320  -10.2940 O.co2  86  ASP86      -0.2456
     42  N          2.2600   -0.8820  -14.5430 N.3   102  GLY102     -0.1225
     43  CA         2.1710   -2.2530  -15.0230 C.3   102  GLY102      0.1811
     44  C          2.5500   -3.3400  -14.0280 C.2   102  GLY102      0.2280
     45  O          3.0230   -4.4040  -14.4270 O.2   102  GLY102     -0.2866
     46  N          0.4900   -5.0910  -12.0800 N.3   104  GLY104     -0.1210
     47  CA        -0.6190   -5.9660  -11.7320 C.3   104  GLY104      0.1956
     48  C         -0.3220   -7.4570  -11.7340 C.2   104  GLY104      0.2612
     49  O          0.8250   -7.8840  -11.8930 O.2   104  GLY104     -0.2717
     50  N         -1.3720   -8.2500  -11.5390 N.am  105  GLY105     -0.1942
     51  CA        -1.2440   -9.6980  -11.5340 C.3   105  GLY105      0.2014
     52  C         -0.1680  -10.2730  -10.6350 C.2   105  GLY105      0.2639
     53  O         -0.0190   -9.8790   -9.4820 O.2   105  GLY105     -0.2714
     54  N          0.5900  -11.2140  -11.1820 N.am  106  GLY106     -0.1939
     55  CA         1.6420  -11.8620  -10.4260 C.3   106  GLY106      0.2014
     56  C          2.7030  -10.9600   -9.8310 C.2   106  GLY106      0.2638
     57  O          3.4870  -11.4250   -9.0080 O.2   106  GLY106     -0.2714
     58  N          2.7480   -9.6900  -10.2360 N.am  107  LEU107     -0.1977
     59  CA         3.7480   -8.7700   -9.6940 C.3   107  LEU107      0.1596
     60  C          3.2920   -8.1460   -8.3740 C.2   107  LEU107      0.2287
     61  O          4.0070   -7.3460   -7.7710 O.2   107  LEU107     -0.2864
     62  CB         4.1030   -7.6820  -10.7170 C.3   107  LEU107      0.0297
     63  CG         4.7370   -8.2310  -12.0050 C.3   107  LEU107      0.0022
     64  CD1        5.2210   -7.0690  -12.8650 C.3   107  LEU107      0.0001
     65  CD2        5.9090   -9.1570  -11.6650 C.3   107  LEU107      0.0001
     66  N          7.3120   -4.6640  -14.5140 N.3   113  PRO113     -0.2116
     67  CA         7.6690   -5.7950  -15.3740 C.3   113  PRO113      0.1372
     68  C          9.1350   -5.8610  -15.7980 C.2   113  PRO113      0.2244
     69  O          9.7990   -6.8840  -15.6220 O.2   113  PRO113     -0.2868
     70  CB         6.7300   -5.6130  -16.5620 C.3   113  PRO113      0.0268
     71  CG         5.5080   -5.0330  -15.9000 C.3   113  PRO113      0.0207
     72  CD         6.1670   -3.9400  -15.0910 C.3   113  PRO113      0.0892
     73  N         -1.2300  -17.8860   -6.7720 N.3   132  PHE132     -0.1241
     74  CA        -1.2380  -18.2090   -8.1990 C.3   132  PHE132      0.1605
     75  C          0.1820  -18.5000   -8.6680 C.2   132  PHE132      0.2264
     76  O          1.0650  -17.6470   -8.5770 O.2   132  PHE132     -0.2867
     77  CB        -1.8030  -17.0420   -9.0050 C.3   132  PHE132      0.0534
     78  CG        -2.1870  -17.4070  -10.4180 C.ar  132  PHE132     -0.0203
     79  CD1       -3.3620  -18.1130  -10.6750 C.ar  132  PHE132     -0.0042
     80  CD2       -1.3680  -17.0570  -11.4910 C.ar  132  PHE132     -0.0042
     81  CE1       -3.7180  -18.4640  -11.9880 C.ar  132  PHE132     -0.0003
     82  CE2       -1.7140  -17.4040  -12.8050 C.ar  132  PHE132     -0.0003
     83  CZ        -2.8900  -18.1080  -13.0530 C.ar  132  PHE132     -0.0000
     84  N          0.8590  -20.4220  -11.9360 N.3   134  ALA134     -0.1245
     85  CA         0.8810  -20.9860  -13.2880 C.3   134  ALA134      0.1562
     86  C          2.2820  -20.8070  -13.8670 C.2   134  ALA134      0.2260
     87  O          2.7240  -19.6830  -14.1130 O.2   134  ALA134     -0.2867
     88  CB        -0.1450  -20.2850  -14.1700 C.3   134  ALA134      0.0290
     89  N          3.4640  -20.9410  -16.6700 N.3   136  ASP136     -0.1225
     90  CA         3.6080  -20.2720  -17.9600 C.3   136  ASP136      0.1805
     91  C          3.5420  -18.7510  -17.8840 C.2   136  ASP136      0.2598
     92  O          3.9000  -18.0670  -18.8420 O.2   136  ASP136     -0.2718
     93  CB         2.5670  -20.7970  -18.9570 C.3   136  ASP136      0.1424
     94  CG         1.1520  -20.7250  -18.4250 C.2   136  ASP136      0.3668
     95  OD1        0.2250  -21.1480  -19.1480 O.co2 136  ASP136     -0.2456
     96  OD2        0.9630  -20.2500  -17.2870 O.co2 136  ASP136     -0.2456
     97  N          3.0890  -18.2190  -16.7510 N.am  137  SER137     -0.1938
     98  CA         3.0030  -16.7690  -16.5720 C.3   137  SER137      0.2055
     99  C          3.8320  -16.3230  -15.3640 C.2   137  SER137      0.2643
    100  O          4.5090  -15.2970  -15.4140 O.2   137  SER137     -0.2714
    101  CB         1.5440  -16.3310  -16.4030 C.3   137  SER137      0.2130
    102  OG         0.9430  -16.9660  -15.2890 O.3   137  SER137     -0.2179
    103  N          3.7680  -17.0900  -14.2790 N.am  138  ASN138     -0.1971
    104  CA         4.5490  -16.7770  -13.0840 C.3   138  ASN138      0.1688
    105  C          5.7450  -17.7210  -13.0910 C.2   138  ASN138      0.2292
    106  O          5.8930  -18.5570  -12.2020 O.2   138  ASN138     -0.2864
    107  CB         3.7250  -16.9900  -11.8050 C.3   138  ASN138      0.1181
    108  CG         2.6080  -15.9700  -11.6380 C.2   138  ASN138      0.2629
    109  OD1        2.3650  -15.4930  -10.5310 O.2   138  ASN138     -0.2716
    110  ND2        1.9150  -15.6440  -12.7280 N.am  138  ASN138     -0.0877
    111  N          8.7140  -17.4270  -12.2950 N.3   140  TRP140     -0.1241
    112  CA         9.6000  -17.3240  -11.1420 C.3   140  TRP140      0.1605
    113  C          9.1130  -18.1110   -9.9240 C.2   140  TRP140      0.2264
    114  O          9.8880  -18.3650   -9.0000 O.2   140  TRP140     -0.2867
    115  CB         9.7480  -15.8510  -10.7830 C.3   140  TRP140      0.0550
    116  CG         8.4200  -15.2000  -10.5830 C.ar  140  TRP140      0.0003
    117  CD1        7.6130  -15.2950   -9.4830 C.ar  140  TRP140      0.0946
    118  CD2        7.6880  -14.4410  -11.5500 C.ar  140  TRP140      0.0152
    119  NE1        6.4240  -14.6410   -9.7080 N.ar  140  TRP140     -0.2442
    120  CE2        6.4450  -14.1090  -10.9710 C.ar  140  TRP140      0.0810
    121  CE3        7.9660  -14.0100  -12.8550 C.ar  140  TRP140      0.0012
    122  CZ2        5.4750  -13.3630  -11.6500 C.ar  140  TRP140      0.0191
    123  CZ3        7.0020  -13.2700  -13.5330 C.ar  140  TRP140      0.0001
    124  CH2        5.7710  -12.9530  -12.9270 C.ar  140  TRP140      0.0015
    125  N         -5.0030  -10.5290  -11.5860 N.3   220  GLY220     -0.1210
    126  CA        -4.8210  -10.3910  -13.0130 C.3   220  GLY220      0.1956
    127  C         -6.0850  -10.8860  -13.6840 C.2   220  GLY220      0.2612
    128  O         -7.1650  -10.3760  -13.4490 O.2   220  GLY220     -0.2717
    129  N         -5.9440  -11.9020  -14.5200 N.am  221  GLU221     -0.1965
    130  CA        -7.1280  -12.4620  -15.1820 C.3   221  GLU221      0.1733
    131  C         -7.9320  -13.2650  -14.1100 C.2   221  GLU221      0.2616
    132  O         -9.1580  -13.4220  -14.1720 O.2   221  GLU221     -0.2715
    133  CB        -6.7230  -13.4680  -16.2830 C.3   221  GLU221      0.0429
    134  CG        -5.7240  -13.0380  -17.3870 C.3   221  GLU221      0.1163
    135  CD        -6.3460  -12.2290  -18.5630 C.2   221  GLU221      0.3649
    136  OE1       -5.7810  -12.3350  -19.6710 O.co2 221  GLU221     -0.2457
    137  OE2       -7.3520  -11.5130  -18.3490 O.co2 221  GLU221     -0.2457
    138  N         -7.1940  -13.8640  -13.1860 N.am  222  GLN222     -0.1963
    139  CA        -7.8060  -14.6300  -12.1050 C.3   222  GLN222      0.1733
    140  C         -7.9430  -13.6920  -10.9100 C.2   222  GLN222      0.2616
    141  O         -7.1140  -12.7940  -10.7050 O.2   222  GLN222     -0.2715
    142  CB        -6.9750  -15.8760  -11.7460 C.3   222  GLN222      0.0408
    143  CG        -7.1880  -17.0810  -12.6590 C.3   222  GLN222      0.0908
    144  CD        -6.8920  -16.7870  -14.1270 C.2   222  GLN222      0.2608
    145  OE1       -7.7570  -16.3600  -14.8790 O.2   222  GLN222     -0.2717
    146  NE2       -5.6450  -16.9850  -14.5140 N.am  222  GLN222     -0.0878
    147  N         -8.9960  -13.8730  -10.1240 N.am  223  TYR223     -0.1974
    148  CA        -9.2760  -12.9680   -9.0170 C.3   223  TYR223      0.1639
    149  C         -9.7760  -13.5910   -7.7250 C.2   223  TYR223      0.2290
    150  O        -10.2180  -14.7410   -7.6930 O.2   223  TYR223     -0.2864
    151  CB       -10.3000  -11.9330   -9.4770 C.3   223  TYR223      0.0560
    152  CG       -11.4460  -12.5630  -10.2440 C.ar  223  TYR223     -0.0198
    153  CD1      -11.3750  -12.7270  -11.6310 C.ar  223  TYR223     -0.0009
    154  CD2      -12.5660  -13.0630   -9.5800 C.ar  223  TYR223     -0.0009
    155  CE1      -12.3910  -13.3750  -12.3350 C.ar  223  TYR223      0.0417
    156  CE2      -13.5880  -13.7140  -10.2740 C.ar  223  TYR223      0.0417
    157  CZ       -13.4920  -13.8650  -11.6500 C.ar  223  TYR223      0.1957
    158  OH       -14.5030  -14.5010  -12.3330 O.3   223  TYR223     -0.2866
@<TRIPOS>BOND
     1   136   135   ar
     2    95    94   ar
     3    93    94    1
     4    93    90    1
     5    92    91    2
     6   135   137   ar
     7   135   134    1
     8    94    96   ar
     9    90    91    1
    10    90    89    1
    11    91    97   am
    12   134   133    1
    13    97    98    1
    14    98   101    1
    15    98    99    1
    16    70    71    1
    17    70    67    1
    18   101   102    1
    19   133   130    1
    20    71    72    1
    21    68    69    2
    22    68    67    1
    23     6     5    1
    24   100    99    2
    25    67    66    1
    26    99   103   am
    27   130   129    1
    28   130   131    1
    29    72    66    1
    30    43    42    1
    31    43    44    1
    32   145   144    2
    33     5     2    1
    34   129   127   am
    35   146   144   am
    36    45    44    2
    37   103   104    1
    38   132   131    2
    39    88    85    1
    40   144   143    1
    41    87    86    2
    42   131   138   am
    43    86    85    1
    44   127   128    2
    45   127   126    1
    46   123   124   ar
    47   123   121   ar
    48    85    84    1
    49     2     1    1
    50     2     3    1
    51   138   139    1
    52   105   104    1
    53   105   106    2
    54   104   107    1
    55    83    82   ar
    56    83    81   ar
    57   126   125    1
    58   124   122   ar
    59    64    63    1
    60   121   118   ar
    61    82    80   ar
    62   110   108   am
    63   143   142    1
    64    28    26   am
    65     4     3    2
    66   155   157   ar
    67   155   153   ar
    68   158   157    1
    69   111   112    1
    70   139   142    1
    71   139   140    1
    72    46    47    1
    73    63    65    1
    74    63    62    1
    75    81    79   ar
    76    49    48    2
    77   107   108    1
    78    48    47    1
    79    48    50   am
    80   157   156   ar
    81   122   120   ar
    82   108   109    2
    83   153   152   ar
    84   118   120   ar
    85   118   116   ar
    86    50    51    1
    87    51    52    1
    88    80    78   ar
    89    14    12    1
    90    26    27    2
    91    26    25    1
    92    54    52   am
    93    54    55    1
    94   112   115    1
    95   112   113    1
    96   120   119   ar
    97   140   141    2
    98   140   147   am
    99    13    12    1
   100   115   116    1
   101    62    59    1
   102    79    78   ar
   103    52    53    2
   104   116   117   ar
   105    20    19    1
   106    55    56    1
   107    78    77    1
   108    12    11    1
   109    41    39   ar
   110   156   154   ar
   111   152   154   ar
   112   152   151    1
   113    58    56   am
   114    58    59    1
   115    25    22    1
   116   147   148    1
   117   113   114    2
   118    40    39   ar
   119    56    57    2
   120   119   117   ar
   121    59    60    1
   122    11     8    1
   123    39    38    1
   124   151   148    1
   125    24    23    2
   126    19    16    1
   127    33    30    1
   128   148   149    1
   129    77    74    1
   130    15    16    1
   131    15     9   am
   132     8     9    1
   133     8     7    1
   134    21    22    1
   135    21    17   am
   136    22    23    1
   137    75    76    2
   138    75    74    1
   139    60    61    2
   140    16    17    1
   141    74    73    1
   142     9    10    2
   143    17    18    2
   144    38    35    1
   145   149   150    2
   146    30    29    1
   147    30    31    1
   148    31    32    2
   149    31    34   am
   150    35    34    1
   151    35    36    1
   152    36    37    2
