@<TRIPOS>MOLECULE
tmp/2as2A01.pdb
 74 68 0 0 0
SMALL
GASTEIGER

@<TRIPOS>ATOM
      1  N        -15.0710   -7.4720   -1.7760 N.3   172  HIS172     -0.1241
      2  CA       -15.7030   -6.4740   -2.6230 C.3   172  HIS172      0.1621
      3  C        -17.1250   -6.8520   -3.0350 C.2   172  HIS172      0.2264
      4  O        -17.7620   -6.0580   -3.7530 O.2   172  HIS172     -0.2867
      5  CB       -14.7920   -6.2430   -3.8530 C.3   172  HIS172      0.0745
      6  CG       -13.6970   -5.2640   -3.4990 C.ar  172  HIS172      0.0817
      7  ND1      -12.6880   -4.9140   -4.3700 N.ar  172  HIS172     -0.2268
      8  CD2      -13.4850   -4.5240   -2.3710 C.ar  172  HIS172      0.1154
      9  CE1      -11.8790   -4.0150   -3.7910 C.ar  172  HIS172      0.1986
     10  NE2      -12.3710   -3.7780   -2.5930 N.ar  172  HIS172     -0.2212
     11  N        -19.0990   -6.6440   -0.7360 N.3   174  LEU174     -0.1245
     12  CA       -19.7020   -5.8000    0.3000 C.3   174  LEU174      0.1561
     13  C        -19.6990   -4.3330   -0.0570 C.2   174  LEU174      0.2260
     14  O        -18.7680   -3.8350   -0.7090 O.2   174  LEU174     -0.2867
     15  CB       -18.9160   -5.9110    1.6270 C.3   174  LEU174      0.0270
     16  CG       -18.7820   -7.3380    2.1860 C.3   174  LEU174      0.0019
     17  CD1      -17.7650   -7.2740    3.3360 C.3   174  LEU174      0.0001
     18  CD2      -20.1370   -7.8720    2.6140 C.3   174  LEU174      0.0001
     19  N        -20.0420   -0.5440   -1.3660 N.3   176  LYS176     -0.1231
     20  CA       -20.0220    0.0950   -2.6610 C.3   176  LYS176      0.1693
     21  C        -18.8630    1.0790   -2.7770 C.2   176  LYS176      0.2592
     22  O        -18.3130    1.4970   -1.7630 O.2   176  LYS176     -0.2718
     23  CB       -21.3880    0.8180   -2.9430 C.3   176  LYS176      0.0285
     24  CG       -21.6030    2.0490   -2.0440 C.3   176  LYS176      0.0035
     25  CD       -23.0060    2.6280   -2.2720 C.3   176  LYS176      0.0206
     26  CE       -23.1130    3.2290   -3.6830 C.3   176  LYS176      0.1093
     27  NZ       -22.4680    4.5710   -3.6970 N.3   176  LYS176     -0.1314
     28  N        -18.5490    1.4370   -4.0200 N.am  177  THR177     -0.1953
     29  CA       -17.7070    2.5900   -4.2460 C.3   177  THR177      0.1897
     30  C        -18.5850    3.8410   -4.2250 C.2   177  THR177      0.2313
     31  O        -19.7530    3.7790   -4.6560 O.2   177  THR177     -0.2863
     32  CB       -16.9340    2.5060   -5.5740 C.3   177  THR177      0.1794
     33  OG1      -17.8750    2.3930   -6.6610 O.3   177  THR177     -0.2208
     34  CG2      -16.0370    1.2710   -5.6180 C.3   177  THR177      0.0378
     35  N        -20.6430    2.7700   -7.3650 N.3   186  GLY186     -0.1225
     36  CA       -21.5590    1.6310   -7.5220 C.3   186  GLY186      0.1811
     37  C        -21.1890    0.4070   -6.6920 C.2   186  GLY186      0.2280
     38  O        -20.0370    0.2890   -6.2380 O.2   186  GLY186     -0.2866
     39  N        -20.9130   -4.0130   -6.0430 N.3   188  GLY188     -0.1225
     40  CA       -20.4160   -5.0660   -6.9060 C.3   188  GLY188      0.1811
     41  C        -21.4130   -6.1980   -7.0670 C.2   188  GLY188      0.2280
     42  O        -21.1280   -7.1600   -7.7780 O.2   188  GLY188     -0.2866
     43  N        -20.6620   -3.0650  -10.4870 N.3   227  MET227     -0.1230
     44  CA       -19.4260   -2.5250  -11.0220 C.3   227  MET227      0.1702
     45  C        -18.2430   -3.3230  -10.4630 C.2   227  MET227      0.2592
     46  O        -18.3390   -3.9230   -9.3940 O.2   227  MET227     -0.2718
     47  CB       -19.1810   -1.0340  -10.7310 C.3   227  MET227      0.0401
     48  CG       -18.9970   -0.6670   -9.2750 C.3   227  MET227      0.0596
     49  SD       -17.3490   -0.9120   -8.5730 S.3   227  MET227     -0.1393
     50  CE       -16.4720    0.4260   -9.3970 C.3   227  MET227      0.0692
     51  N        -17.1550   -3.2820  -11.2270 N.am  228  MET228     -0.1965
     52  CA       -15.8680   -3.8020  -10.8180 C.3   228  MET228      0.1736
     53  C        -14.8000   -2.7490  -11.0220 C.2   228  MET228      0.2616
     54  O        -14.8190   -2.1090  -12.0970 O.2   228  MET228     -0.2715
     55  CB       -15.5490   -5.0650  -11.6240 C.3   228  MET228      0.0427
     56  CG       -16.4480   -6.2570  -11.2910 C.3   228  MET228      0.0599
     57  SD       -16.0680   -6.9700   -9.6680 S.3   228  MET228     -0.1393
     58  CE       -17.6410   -7.8160   -9.3490 C.3   228  MET228      0.0692
     59  N        -13.9120   -2.5600  -10.0520 N.am  229  LEU229     -0.1977
     60  CA       -12.6960   -1.7720  -10.3010 C.3   229  LEU229      0.1596
     61  C        -11.8040   -2.4180  -11.3530 C.2   229  LEU229      0.2287
     62  O        -11.8620   -3.6290  -11.5260 O.2   229  LEU229     -0.2864
     63  CB       -11.8590   -1.6610   -9.0130 C.3   229  LEU229      0.0297
     64  CG       -12.6420   -0.9800   -7.8750 C.3   229  LEU229      0.0022
     65  CD1      -11.9740   -1.2320   -6.5230 C.3   229  LEU229      0.0001
     66  CD2      -12.7970    0.5140   -8.1480 C.3   229  LEU229      0.0001
     67  N        -10.1880   -5.2600   -9.7030 N.3   232  ASP232     -0.1239
     68  CA       -11.0890   -6.4100   -9.5390 C.3   232  ASP232      0.1674
     69  C        -11.1490   -7.2650  -10.8150 C.2   232  ASP232      0.2266
     70  O        -11.0080   -8.4940  -10.8390 O.2   232  ASP232     -0.2867
     71  CB       -12.4940   -5.8920   -9.2310 C.3   232  ASP232      0.1410
     72  CG       -12.7010   -5.2750   -7.8730 C.2   232  ASP232      0.3668
     73  OD1      -11.9700   -5.6630   -6.9170 O.co2 232  ASP232     -0.2456
     74  OD2      -13.6080   -4.3990   -7.7580 O.co2 232  ASP232     -0.2456
@<TRIPOS>BOND
     1    54    53    2
     2    55    56    1
     3    55    52    1
     4    62    61    2
     5    61    60    1
     6    56    57    1
     7    51    52    1
     8    51    45   am
     9    53    52    1
    10    53    59   am
    11    44    47    1
    12    44    43    1
    13    44    45    1
    14    70    69    2
    15    69    68    1
    16    47    48    1
    17    45    46    2
    18    60    59    1
    19    60    63    1
    20    67    68    1
    21    57    58    1
    22    68    71    1
    23    50    49    1
    24    48    49    1
    25    71    72    1
    26    63    64    1
    27    66    64    1
    28    64    65    1
    29    72    74   ar
    30    72    73   ar
    31    42    41    2
    32    36    35    1
    33    36    37    1
    34    41    40    1
    35    40    39    1
    36    37    38    2
    37    33    32    1
    38    34    32    1
    39    32    29    1
    40    31    30    2
    41     7     9   ar
    42     7     6   ar
    43    29    30    1
    44    29    28    1
    45    28    21   am
    46     5     6    1
    47     5     2    1
    48     9    10   ar
    49     4     3    2
    50    27    26    1
    51    26    25    1
    52     6     8   ar
    53     3     2    1
    54    23    20    1
    55    23    24    1
    56    21    20    1
    57    21    22    2
    58    20    19    1
    59     2     1    1
    60    10     8   ar
    61    25    24    1
    62    11    12    1
    63    14    13    2
    64    13    12    1
    65    12    15    1
    66    15    16    1
    67    16    18    1
    68    16    17    1
