@<TRIPOS>MOLECULE
tmp/2asoA01.pdb
 184 177 0 0 0
SMALL
GASTEIGER

@<TRIPOS>ATOM
      1  N         27.0180   -1.6990   21.9850 N.3    21  ASP21      -0.1239
      2  CA        26.5410   -2.1140   23.3150 C.3    21  ASP21       0.1674
      3  C         25.1370   -1.5900   23.6060 C.2    21  ASP21       0.2266
      4  O         24.3730   -2.1860   24.3780 O.2    21  ASP21      -0.2867
      5  CB        27.4240   -1.5300   24.4330 C.3    21  ASP21       0.1410
      6  CG        28.8230   -2.0930   24.4630 C.2    21  ASP21       0.3668
      7  OD1       29.2950   -2.6770   23.4630 O.co2  21  ASP21      -0.2456
      8  OD2       29.5330   -1.9570   25.4760 O.co2  21  ASP21      -0.2456
      9  N         13.5870   -5.5160    8.2500 N.3   118  TYR118     -0.1241
     10  CA        12.8880   -6.5310    8.9890 C.3   118  TYR118      0.1605
     11  C         12.1270   -5.7880   10.0860 C.2   118  TYR118      0.2264
     12  O         12.5410   -4.7190   10.4890 O.2   118  TYR118     -0.2867
     13  CB        13.8690   -7.5570    9.5810 C.3   118  TYR118      0.0534
     14  CG        13.1740   -8.7520   10.1500 C.ar  118  TYR118     -0.0201
     15  CD1       12.8750   -9.8520    9.3500 C.ar  118  TYR118     -0.0009
     16  CD2       12.7760   -8.7730   11.4930 C.ar  118  TYR118     -0.0009
     17  CE1       12.2050  -10.9320    9.8610 C.ar  118  TYR118      0.0417
     18  CE2       12.0950   -9.8560   12.0170 C.ar  118  TYR118      0.0417
     19  CZ        11.8140  -10.9320   11.2020 C.ar  118  TYR118      0.1957
     20  OH        11.1360  -12.0130   11.6870 O.3   118  TYR118     -0.2866
     21  N         10.4790   -6.5740   13.8660 N.3   120  ALA120     -0.1231
     22  CA        10.3720   -7.5160   14.9690 C.3   120  ALA120      0.1694
     23  C          9.5960   -6.9590   16.1480 C.2   120  ALA120      0.2591
     24  O          9.6180   -5.7720   16.3880 O.2   120  ALA120     -0.2718
     25  CB        11.7610   -7.9250   15.4660 C.3   120  ALA120      0.0304
     26  N          8.9780   -7.8510   16.9100 N.am  121  ILE121     -0.1980
     27  CA         8.1740   -7.4770   18.0630 C.3   121  ILE121      0.1595
     28  C          9.0720   -7.1000   19.2350 C.2   121  ILE121      0.2287
     29  O          9.9450   -7.8640   19.6320 O.2   121  ILE121     -0.2864
     30  CB         7.2840   -8.6240   18.4800 C.3   121  ILE121      0.0276
     31  CG1        6.3300   -8.9850   17.3310 C.3   121  ILE121      0.0022
     32  CG2        6.5060   -8.2880   19.7470 C.3   121  ILE121      0.0022
     33  CD1        5.8620  -10.4110   17.3970 C.3   121  ILE121      0.0001
     34  N          9.6680   -9.5350   22.2200 N.3   124  VAL124     -0.1245
     35  CA        10.4050  -10.7190   21.8220 C.3   124  VAL124      0.1561
     36  C         11.9110  -10.4070   21.8490 C.2   124  VAL124      0.2260
     37  O         12.6910  -11.1810   22.3840 O.2   124  VAL124     -0.2867
     38  CB         9.9110  -11.2550   20.4760 C.3   124  VAL124      0.0252
     39  CG1       10.7910  -12.3920   19.9940 C.3   124  VAL124      0.0019
     40  CG2        8.4700  -11.7730   20.6390 C.3   124  VAL124      0.0019
     41  N         15.0840  -12.0630   24.0090 N.3   128  TYR128     -0.1227
     42  CA        16.3620  -12.5030   23.4250 C.3   128  TYR128      0.1736
     43  C         17.5440  -11.8580   24.1310 C.2   128  TYR128      0.2595
     44  O         18.5380  -12.5260   24.4070 O.2   128  TYR128     -0.2718
     45  CB        16.4570  -12.1740   21.9460 C.3   128  TYR128      0.0548
     46  CG        15.4450  -12.8560   21.0430 C.ar  128  TYR128     -0.0200
     47  CD1       14.6580  -13.9160   21.4860 C.ar  128  TYR128     -0.0009
     48  CD2       15.2940  -12.4370   19.7290 C.ar  128  TYR128     -0.0009
     49  CE1       13.7520  -14.5480   20.6370 C.ar  128  TYR128      0.0417
     50  CE2       14.3660  -13.0450   18.8750 C.ar  128  TYR128      0.0417
     51  CZ        13.6190  -14.0960   19.3240 C.ar  128  TYR128      0.1957
     52  OH        12.7100  -14.7020   18.4840 O.3   128  TYR128     -0.2866
     53  N         17.4260  -10.5780   24.4510 N.am  129  ALA129     -0.1966
     54  CA        18.5080   -9.8350   25.1160 C.3   129  ALA129      0.1728
     55  C         18.8690  -10.4260   26.4820 C.2   129  ALA129      0.2617
     56  O         20.0060  -10.2520   26.9610 O.2   129  ALA129     -0.2715
     57  CB        18.1340   -8.3380   25.2670 C.3   129  ALA129      0.0334
     58  N         17.9030  -11.1100   27.0970 N.am  130  SER130     -0.1936
     59  CA        18.0970  -11.7250   28.4060 C.3   130  SER130      0.2055
     60  C         18.7440  -13.0980   28.3160 C.2   130  SER130      0.2644
     61  O         19.0430  -13.6980   29.3410 O.2   130  SER130     -0.2714
     62  CB        16.7730  -11.8250   29.1740 C.3   130  SER130      0.2130
     63  OG        15.9880  -12.9270   28.7700 O.3   130  SER130     -0.2179
     64  N         18.9430  -13.5920   27.0950 N.am  131  GLY131     -0.1939
     65  CA        19.5210  -14.9000   26.8750 C.3   131  GLY131      0.2014
     66  C         18.5270  -16.0370   26.8250 C.2   131  GLY131      0.2639
     67  O         18.9030  -17.2070   27.0280 O.2   131  GLY131     -0.2714
     68  N         17.2670  -15.7200   26.5220 N.am  132  ARG132     -0.1963
     69  CA        16.2080  -16.7150   26.5020 C.3   132  ARG132      0.1729
     70  C         15.3650  -16.6750   25.2310 C.2   132  ARG132      0.2616
     71  O         15.2210  -15.6320   24.6010 O.2   132  ARG132     -0.2715
     72  CB        15.2240  -16.4850   27.6650 C.3   132  ARG132      0.0348
     73  CG        15.8100  -16.5330   29.0450 C.3   132  ARG132      0.0492
     74  CD        14.8580  -15.9690   30.0890 C.3   132  ARG132      0.2205
     75  NE        15.3090  -16.2300   31.4430 N.pl3 132  ARG132     -0.0865
     76  CZ        16.2970  -15.5950   32.0360 C.cat 132  ARG132      0.5346
     77  NH1       16.9640  -14.6270   31.4290 N.pl3 132  ARG132      0.1354
     78  NH2       16.6110  -15.9200   33.2710 N.pl3 132  ARG132      0.1354
     79  N         14.7990  -17.8210   24.8740 N.am  133  THR133     -0.1951
     80  CA        13.7820  -17.8770   23.8240 C.3   133  THR133      0.1897
     81  C         12.4370  -18.3010   24.3870 C.2   133  THR133      0.2313
     82  O         11.4470  -18.2960   23.6610 O.2   133  THR133     -0.2863
     83  CB        14.1940  -18.8230   22.6900 C.3   133  THR133      0.1794
     84  OG1       14.6290  -20.0710   23.2410 O.3   133  THR133     -0.2208
     85  CG2       15.3790  -18.2880   21.9280 C.3   133  THR133      0.0378
     86  N          9.7710  -20.8720   22.7490 N.3   152  GLU152     -0.1231
     87  CA        10.7530  -21.3230   21.7800 C.3   152  GLU152      0.1699
     88  C         10.9180  -20.3370   20.6370 C.2   152  GLU152      0.2593
     89  O         11.0480  -20.7200   19.4620 O.2   152  GLU152     -0.2718
     90  CB        10.4140  -22.7340   21.3120 C.3   152  GLU152      0.0402
     91  CG        10.4600  -23.7500   22.4480 C.3   152  GLU152      0.1161
     92  CD        11.8580  -24.3090   22.7210 C.2   152  GLU152      0.3649
     93  OE1       12.8780  -23.6260   22.4530 O.co2 152  GLU152     -0.2457
     94  OE2       11.9320  -25.4530   23.2270 O.co2 152  GLU152     -0.2457
     95  N         10.8930  -19.0560   21.0060 N.am  153  GLY153     -0.1942
     96  CA        11.3430  -17.9840   20.1620 C.3   153  GLY153      0.2014
     97  C         10.2420  -17.1300   19.5900 C.2   153  GLY153      0.2639
     98  O         10.5390  -16.0950   19.0000 O.2   153  GLY153     -0.2714
     99  N          8.9870  -17.5520   19.7550 N.am  154  TYR154     -0.1959
    100  CA         7.8510  -16.8960   19.0960 C.3   154  TYR154      0.1771
    101  C          6.7920  -16.4610   20.1000 C.2   154  TYR154      0.2619
    102  O          6.4400  -17.2150   20.9840 O.2   154  TYR154     -0.2715
    103  CB         7.2390  -17.8260   18.0270 C.3   154  TYR154      0.0574
    104  CG         8.3000  -18.2630   17.0280 C.ar  154  TYR154     -0.0198
    105  CD1        9.0650  -19.4060   17.2590 C.ar  154  TYR154     -0.0009
    106  CD2        8.5900  -17.4970   15.9060 C.ar  154  TYR154     -0.0009
    107  CE1       10.0690  -19.7930   16.3670 C.ar  154  TYR154      0.0417
    108  CE2        9.5900  -17.8780   15.0080 C.ar  154  TYR154      0.0417
    109  CZ        10.3300  -19.0190   15.2570 C.ar  154  TYR154      0.1957
    110  OH        11.3150  -19.4120   14.3780 O.3   154  TYR154     -0.2866
    111  N          6.3000  -15.2350   19.9620 N.am  155  ALA155     -0.1977
    112  CA         5.1800  -14.7640   20.7980 C.3   155  ALA155      0.1597
    113  C          3.9320  -15.6120   20.6080 C.2   155  ALA155      0.2287
    114  O          3.7190  -16.1820   19.5210 O.2   155  ALA155     -0.2864
    115  CB         4.8640  -13.3020   20.4960 C.3   155  ALA155      0.0319
    116  N         18.8090   -3.8780   22.3830 N.3   326  ILE326     -0.1245
    117  CA        19.9160   -4.8370   22.4510 C.3   326  ILE326      0.1561
    118  C         19.5110   -6.1250   21.7690 C.2   326  ILE326      0.2260
    119  O         20.2730   -6.7000   20.9980 O.2   326  ILE326     -0.2867
    120  CB        20.3740   -5.1050   23.9180 C.3   326  ILE326      0.0252
    121  CG1       21.0510   -3.8620   24.4870 C.3   326  ILE326      0.0019
    122  CG2       21.2800   -6.3650   23.9840 C.3   326  ILE326      0.0019
    123  CD1       21.1350   -3.8040   26.0210 C.3   326  ILE326      0.0001
    124  N         21.4460   -7.8900   18.5550 N.3   330  ILE330     -0.1231
    125  CA        22.0060   -9.2300   18.5410 C.3   330  ILE330      0.1692
    126  C         21.2790  -10.1320   17.5450 C.2   330  ILE330      0.2591
    127  O         21.8690  -11.0790   17.0140 O.2   330  ILE330     -0.2718
    128  CB        22.0670   -9.8390   19.9590 C.3   330  ILE330      0.0266
    129  CG1       20.6620  -10.0500   20.5410 C.3   330  ILE330      0.0019
    130  CG2       22.9670   -8.9620   20.8810 C.3   330  ILE330      0.0020
    131  CD1       20.6580  -10.8390   21.8580 C.3   330  ILE330      0.0001
    132  N         20.0120   -9.8320   17.2630 N.am  331  LEU331     -0.1980
    133  CA        19.2720  -10.5820   16.2590 C.3   331  LEU331      0.1596
    134  C         19.8400  -10.2720   14.8640 C.2   331  LEU331      0.2287
    135  O         20.1180  -11.1870   14.0670 O.2   331  LEU331     -0.2864
    136  CB        17.7790  -10.2360   16.3200 C.3   331  LEU331      0.0297
    137  CG        16.8560  -10.9700   15.3290 C.3   331  LEU331      0.0022
    138  CD1       16.8290  -12.4720   15.4920 C.3   331  LEU331      0.0001
    139  CD2       15.4140  -10.4190   15.4240 C.3   331  LEU331      0.0001
    140  N         23.0740  -11.9960   13.9680 N.3   334  LEU334     -0.1245
    141  CA        23.0750  -13.4540   13.9460 C.3   334  LEU334      0.1561
    142  C         23.1840  -14.0140   12.5210 C.2   334  LEU334      0.2260
    143  O         22.5010  -13.5370   11.6040 O.2   334  LEU334     -0.2867
    144  CB        21.7980  -13.9600   14.6140 C.3   334  LEU334      0.0270
    145  CG        21.7820  -15.3380   15.2600 C.3   334  LEU334      0.0019
    146  CD1       22.9070  -15.4790   16.3190 C.3   334  LEU334      0.0001
    147  CD2       20.3910  -15.6360   15.8310 C.3   334  LEU334      0.0001
    148  N         22.2220  -16.9380   11.3400 N.3   336  THR336     -0.1203
    149  CA        20.9630  -17.5900   10.9440 C.3   336  THR336      0.1994
    150  C         19.8090  -16.6170   10.6730 C.2   336  THR336      0.2617
    151  O         18.7430  -17.0520   10.2260 O.2   336  THR336     -0.2717
    152  CB        20.4860  -18.6240   11.9940 C.3   336  THR336      0.1784
    153  OG1       20.5850  -18.0750   13.3140 O.3   336  THR336     -0.2211
    154  CG2       21.3800  -19.8760   12.0220 C.3   336  THR336      0.0376
    155  N         20.0110  -15.3280   10.9510 N.am  337  PHE337     -0.1975
    156  CA        19.0050  -14.2950   10.6630 C.3   337  PHE337      0.1639
    157  C         19.1840  -13.6590    9.2710 C.2   337  PHE337      0.2290
    158  O         18.2460  -13.0600    8.7400 O.2   337  PHE337     -0.2864
    159  CB        19.0480  -13.2020   11.7510 C.3   337  PHE337      0.0560
    160  CG        18.0830  -12.0570   11.5190 C.ar  337  PHE337     -0.0200
    161  CD1       16.7440  -12.1830   11.8760 C.ar  337  PHE337     -0.0042
    162  CD2       18.5250  -10.8620   10.9760 C.ar  337  PHE337     -0.0042
    163  CE1       15.8610  -11.1340   11.6690 C.ar  337  PHE337     -0.0003
    164  CE2       17.6390   -9.8110   10.7640 C.ar  337  PHE337     -0.0003
    165  CZ        16.3010   -9.9630   11.1250 C.ar  337  PHE337     -0.0000
    166  N         16.5750  -14.0110    6.7480 N.3   340  MET340     -0.1245
    167  CA        15.2450  -13.5220    7.1170 C.3   340  MET340      0.1570
    168  C         14.9670  -12.0950    6.6800 C.2   340  MET340      0.2261
    169  O         13.8060  -11.7020    6.6160 O.2   340  MET340     -0.2867
    170  CB        15.0420  -13.6470    8.6210 C.3   340  MET340      0.0387
    171  CG        14.9700  -15.0800    9.0750 C.3   340  MET340      0.0595
    172  SD        14.9170  -15.2700   10.8520 S.3   340  MET340     -0.1393
    173  CE        13.2440  -14.5440   11.2330 C.3   340  MET340      0.0692
    174  N          8.0740  -12.7510   11.3590 N.3   360  PHE360     -0.1241
    175  CA         7.2930  -13.4520   12.3640 C.3   360  PHE360      0.1605
    176  C          6.7370  -12.4040   13.3250 C.2   360  PHE360      0.2264
    177  O          7.5020  -11.6730   13.9710 O.2   360  PHE360     -0.2867
    178  CB         8.1860  -14.4590   13.1060 C.3   360  PHE360      0.0534
    179  CG         8.5280  -15.7330   12.3830 C.ar  360  PHE360     -0.0203
    180  CD1        7.5400  -16.6200   11.9930 C.ar  360  PHE360     -0.0042
    181  CD2        9.8440  -16.0720   12.0960 C.ar  360  PHE360     -0.0042
    182  CE1        7.8530  -17.8040   11.3080 C.ar  360  PHE360     -0.0003
    183  CE2       10.1430  -17.2730   11.4540 C.ar  360  PHE360     -0.0003
    184  CZ         9.1600  -18.1130   11.0660 C.ar  360  PHE360     -0.0000
@<TRIPOS>BOND
     1   169   168    2
     2   168   167    1
     3   166   167    1
     4   167   170    1
     5     9    10    1
     6   170   171    1
     7   158   157    2
     8    10    13    1
     9    10    11    1
    10   171   172    1
    11   157   156    1
    12    15    17   ar
    13    15    14   ar
    14    13    14    1
    15    17    19   ar
    16    11    12    2
    17    14    16   ar
    18   151   150    2
    19   156   155    1
    20   156   159    1
    21   150   149    1
    22   150   155   am
    23   164   162   ar
    24   164   165   ar
    25   172   173    1
    26   149   148    1
    27   149   152    1
    28   162   160   ar
    29   184   182   ar
    30   184   183   ar
    31   165   163   ar
    32    19    20    1
    33    19    18   ar
    34   182   180   ar
    35   174   175    1
    36   183   181   ar
    37    16    18   ar
    38   160   159    1
    39   160   161   ar
    40   143   142    2
    41   163   161   ar
    42   180   179   ar
    43   152   154    1
    44   152   153    1
    45   181   179   ar
    46   175   178    1
    47   175   176    1
    48   179   178    1
    49   142   141    1
    50   176   177    2
    51    21    22    1
    52   141   140    1
    53   141   144    1
    54   135   134    2
    55   110   109    1
    56   144   145    1
    57   134   133    1
    58    22    25    1
    59    22    23    1
    60   108   109   ar
    61   108   106   ar
    62   109   107   ar
    63   145   147    1
    64   145   146    1
    65   137   139    1
    66   137   138    1
    67   137   136    1
    68   106   104   ar
    69    23    24    2
    70    23    26   am
    71   133   136    1
    72   133   132    1
    73   107   105   ar
    74    26    27    1
    75   127   126    2
    76   104   105   ar
    77   104   103    1
    78   132   126   am
    79    31    33    1
    80    31    30    1
    81   126   125    1
    82   103   100    1
    83    27    30    1
    84    27    28    1
    85    30    32    1
    86    52    51    1
    87   125   124    1
    88   125   128    1
    89    50    51   ar
    90    50    48   ar
    91    98    97    2
    92   100    99    1
    93   100   101    1
    94    28    29    2
    95    51    49   ar
    96    89    88    2
    97   114   113    2
    98    97    99   am
    99    97    96    1
   100    48    46   ar
   101   128   129    1
   102   128   130    1
   103   111   101   am
   104   111   112    1
   105    39    38    1
   106   101   102    2
   107    96    95    1
   108    38    40    1
   109    38    35    1
   110   115   112    1
   111   129   131    1
   112   113   112    1
   113    88    95   am
   114    88    87    1
   115    49    47   ar
   116   119   118    2
   117    46    47   ar
   118    46    45    1
   119    90    87    1
   120    90    91    1
   121   118   117    1
   122    87    86    1
   123    35    36    1
   124    35    34    1
   125    36    37    2
   126    85    83    1
   127    45    42    1
   128     1     2    1
   129   116   117    1
   130    91    92    1
   131   117   120    1
   132    93    92   ar
   133    83    84    1
   134    83    80    1
   135    92    94   ar
   136     2     3    1
   137     2     5    1
   138    42    41    1
   139    42    43    1
   140     7     6   ar
   141     3     4    2
   142    82    81    2
   143    80    81    1
   144    80    79    1
   145   120   122    1
   146   120   121    1
   147    43    44    2
   148    43    53   am
   149     5     6    1
   150    53    54    1
   151     6     8   ar
   152   121   123    1
   153    71    70    2
   154    79    70   am
   155    54    57    1
   156    54    55    1
   157    70    69    1
   158    55    56    2
   159    55    58   am
   160    69    68    1
   161    69    72    1
   162    68    66   am
   163    66    65    1
   164    66    67    2
   165    65    64    1
   166    64    60   am
   167    58    59    1
   168    72    73    1
   169    60    59    1
   170    60    61    2
   171    59    62    1
   172    63    62    1
   173    73    74    1
   174    74    75    1
   175    77    76    1
   176    75    76    2
   177    76    78    1
