@<TRIPOS>MOLECULE
tmp/2aspA01.pdb
 183 177 0 0 0
SMALL
GASTEIGER

@<TRIPOS>ATOM
      1  N        135.3220    6.5470  -11.8450 N.3   121  TYR121     -0.1241
      2  CA       136.3660    7.4670  -11.4370 C.3   121  TYR121      0.1605
      3  C        137.4710    6.6250  -10.8310 C.2   121  TYR121      0.2264
      4  O        137.2120    5.5310  -10.3290 O.2   121  TYR121     -0.2867
      5  CB       135.8180    8.4580  -10.4110 C.3   121  TYR121      0.0534
      6  CG       136.6830    9.6620  -10.1530 C.ar  121  TYR121     -0.0201
      7  CD1      136.5310   10.8200  -10.9110 C.ar  121  TYR121     -0.0009
      8  CD2      137.6400    9.6520   -9.1450 C.ar  121  TYR121     -0.0009
      9  CE1      137.3190   11.9430  -10.6680 C.ar  121  TYR121      0.0417
     10  CE2      138.4200   10.7600   -8.8970 C.ar  121  TYR121      0.0417
     11  CZ       138.2620   11.8960   -9.6670 C.ar  121  TYR121      0.1957
     12  OH       139.0540   13.0050   -9.4190 O.3   121  TYR121     -0.2866
     13  N        142.5270    8.4360    1.7960 N.3   129  SER129     -0.1217
     14  CA       142.7770    8.3040    3.2330 C.3   129  SER129      0.1889
     15  C        142.8130    9.6890    3.9280 C.2   129  SER129      0.2288
     16  O        142.2620    9.8680    5.0270 O.2   129  SER129     -0.2866
     17  CB       144.0820    7.4950    3.4540 C.3   129  SER129      0.2089
     18  OG       143.7040    6.1450    3.3210 O.3   129  SER129     -0.2183
     19  N        141.3210   12.4000    2.8500 N.3   131  TYR131     -0.1227
     20  CA       139.9320   12.8740    2.8890 C.3   131  TYR131      0.1736
     21  C        139.1570   12.2640    4.0590 C.2   131  TYR131      0.2595
     22  O        138.3810   12.9540    4.7200 O.2   131  TYR131     -0.2718
     23  CB       139.1850   12.5720    1.5880 C.3   131  TYR131      0.0548
     24  CG       139.7130   13.2900    0.3510 C.ar  131  TYR131     -0.0200
     25  CD1      140.5670   14.3890    0.4470 C.ar  131  TYR131     -0.0009
     26  CD2      139.3220   12.8760   -0.9130 C.ar  131  TYR131     -0.0009
     27  CE1      141.0310   15.0360   -0.6950 C.ar  131  TYR131      0.0417
     28  CE2      139.7700   13.5030   -2.0460 C.ar  131  TYR131      0.0417
     29  CZ       140.6240   14.5820   -1.9450 C.ar  131  TYR131      0.1957
     30  OH       141.0770   15.1840   -3.1090 O.3   131  TYR131     -0.2866
     31  N        139.3500   10.9730    4.3200 N.am  132  ALA132     -0.1966
     32  CA       138.6460   10.2870    5.4060 C.3   132  ALA132      0.1728
     33  C        138.9880   10.8670    6.7710 C.2   132  ALA132      0.2617
     34  O        138.1760   10.7930    7.6860 O.2   132  ALA132     -0.2715
     35  CB       138.9410    8.7810    5.3910 C.3   132  ALA132      0.0334
     36  N        140.1930   11.4270    6.8880 N.am  133  SER133     -0.1936
     37  CA       140.6420   12.0790    8.1160 C.3   133  SER133      0.2055
     38  C        140.0620   13.4850    8.2640 C.2   133  SER133      0.2644
     39  O        140.3160   14.1460    9.2630 O.2   133  SER133     -0.2714
     40  CB       142.1740   12.1510    8.2130 C.3   133  SER133      0.2130
     41  OG       142.7410   13.1700    7.4170 O.3   133  SER133     -0.2179
     42  N        139.3060   13.9460    7.2710 N.am  134  GLY134     -0.1939
     43  CA       138.6170   15.2240    7.3650 C.3   134  GLY134      0.2014
     44  C        139.4340   16.4130    6.9540 C.2   134  GLY134      0.2639
     45  O        139.1940   17.5230    7.4210 O.2   134  GLY134     -0.2714
     46  N        140.3940   16.2180    6.0560 N.am  135  ARG135     -0.1963
     47  CA       141.2110   17.3230    5.5760 C.3   135  ARG135      0.1729
     48  C        141.6630   17.1010    4.1420 C.2   135  ARG135      0.2616
     49  O        141.5360   15.9910    3.6030 O.2   135  ARG135     -0.2715
     50  CB       142.4010   17.5600    6.5150 C.3   135  ARG135      0.0348
     51  CG       143.5120   16.5290    6.3720 C.3   135  ARG135      0.0492
     52  CD       144.2960   16.3510    7.6850 C.3   135  ARG135      0.2205
     53  NE       143.4700   15.6410    8.6510 N.pl3 135  ARG135     -0.0865
     54  CZ       143.4850   15.8120    9.9700 C.cat 135  ARG135      0.5346
     55  NH1      144.3210   16.6540   10.5580 N.pl3 135  ARG135      0.1354
     56  NH2      142.6440   15.1230   10.7080 N.pl3 135  ARG135      0.1354
     57  N        142.1430   18.1690    3.5150 N.am  136  THR136     -0.1951
     58  CA       142.6540   18.0950    2.1370 C.3   136  THR136      0.1897
     59  C        144.1260   18.4320    1.9730 C.2   136  THR136      0.2313
     60  O        144.6290   18.3880    0.8570 O.2   136  THR136     -0.2863
     61  CB       141.8360   18.9740    1.1620 C.3   136  THR136      0.1794
     62  OG1      141.9220   20.3460    1.5540 O.3   136  THR136     -0.2208
     63  CG2      140.3730   18.5450    1.1520 C.3   136  THR136      0.0378
     64  N        145.8540   20.8310   -0.8270 N.3   155  GLU155     -0.1231
     65  CA       144.5570   21.2710   -1.3520 C.3   155  GLU155      0.1699
     66  C        143.9280   20.2090   -2.2430 C.2   155  GLU155      0.2593
     67  O        143.3030   20.5090   -3.2770 O.2   155  GLU155     -0.2718
     68  CB       144.6910   22.6080   -2.0880 C.3   155  GLU155      0.0402
     69  CG       145.0660   23.7710   -1.1820 C.3   155  GLU155      0.1161
     70  CD       143.9590   24.1760   -0.2220 C.2   155  GLU155      0.3649
     71  OE1      142.8360   23.6300   -0.3060 O.co2 155  GLU155     -0.2457
     72  OE2      144.2060   25.0540    0.6250 O.co2 155  GLU155     -0.2457
     73  N        144.1060   18.9540   -1.8260 N.am  156  GLY156     -0.1942
     74  CA       143.4140   17.8360   -2.4200 C.3   156  GLY156      0.2014
     75  C        144.1940   17.0500   -3.4360 C.2   156  GLY156      0.2638
     76  O        143.7320   15.9880   -3.8660 O.2   156  GLY156     -0.2714
     77  N        145.3740   17.5380   -3.8240 N.am  157  TYR157     -0.1973
     78  CA       146.1360   16.9000   -4.8850 C.3   157  TYR157      0.1639
     79  C        147.5510   16.4480   -4.4630 C.2   157  TYR157      0.2290
     80  O        148.2950   17.1720   -3.7940 O.2   157  TYR157     -0.2864
     81  CB       146.1230   17.7970   -6.1240 C.3   157  TYR157      0.0560
     82  CG       144.6880   18.1340   -6.5320 C.ar  157  TYR157     -0.0198
     83  CD1      144.0720   19.3040   -6.0890 C.ar  157  TYR157     -0.0009
     84  CD2      143.9320   17.2490   -7.3050 C.ar  157  TYR157     -0.0009
     85  CE1      142.7520   19.6010   -6.4340 C.ar  157  TYR157      0.0417
     86  CE2      142.6090   17.5360   -7.6530 C.ar  157  TYR157      0.0417
     87  CZ       142.0290   18.7090   -7.2160 C.ar  157  TYR157      0.1957
     88  OH       140.7240   18.9980   -7.5740 O.3   157  TYR157     -0.2866
     89  N        148.2090   11.7150   13.0540 N.3   318  ILE318     -0.1245
     90  CA       146.8080   11.3250   13.1240 C.3   318  ILE318      0.1561
     91  C        146.7400    9.8660   12.6620 C.2   318  ILE318      0.2260
     92  O        147.0800    9.5510   11.5250 O.2   318  ILE318     -0.2867
     93  CB       145.9360   12.2510   12.2470 C.3   318  ILE318      0.0252
     94  CG1      146.0750   13.7300   12.7070 C.3   318  ILE318      0.0019
     95  CG2      144.4860   11.8090   12.2520 C.3   318  ILE318      0.0019
     96  CD1      147.0320   14.5410   11.8580 C.3   318  ILE318      0.0001
     97  N        143.9550    7.2420   12.8280 N.2   320  PRO320     -0.2571
     98  CA       142.5740    6.8870   13.1360 C.3   320  PRO320      0.2012
     99  C        142.3790    5.3950   13.3380 C.2   320  PRO320      0.2530
    100  O        143.0110    4.5910   12.6750 O.2   320  PRO320     -0.2724
    101  CB       141.7770    7.3550   11.8980 C.2   320  PRO320      0.0085
    102  CG       142.7090    7.9800   11.0120 C.2   320  PRO320      0.0180
    103  CD       144.1100    7.7920   11.4700 C.2   320  PRO320      0.0938
    104  N        141.4980    5.0120   14.2610 N.am  321  PRO321     -0.2636
    105  CA       141.1790    3.5970   14.4410 C.3   321  PRO321      0.1763
    106  C        140.6880    2.9060   13.1620 C.2   321  PRO321      0.2641
    107  O        140.8520    1.6880   13.0080 O.2   321  PRO321     -0.2712
    108  CB       140.0780    3.6120   15.5130 C.2   321  PRO321     -0.0003
    109  CG       139.9650    4.9660   15.9880 C.2   321  PRO321     -0.0071
    110  CD       140.7950    5.8940   15.2080 C.3   321  PRO321      0.1204
    111  N        140.1150    3.6890   12.2530 N.am  322  GLU322     -0.1975
    112  CA       139.5540    3.1820   11.0010 C.3   322  GLU322      0.1602
    113  C        140.5900    2.9590    9.9150 C.2   322  GLU322      0.2287
    114  O        140.2270    2.6560    8.7780 O.2   322  GLU322     -0.2864
    115  CB       138.5460    4.1930   10.4530 C.3   322  GLU322      0.0415
    116  CG       137.3080    4.4200   11.3030 C.3   322  GLU322      0.1163
    117  CD       137.4740    5.3990   12.4460 C.2   322  GLU322      0.3649
    118  OE1      138.5890    5.8880   12.7360 O.co2 322  GLU322     -0.2457
    119  OE2      136.4310    5.6920   13.0530 O.co2 322  GLU322     -0.2457
    120  N        140.4410    3.1970    5.8430 N.3   326  SER326     -0.1217
    121  CA       140.2930    4.6490    5.5540 C.3   326  SER326      0.1889
    122  C        140.3610    5.0160    4.0500 C.2   326  SER326      0.2288
    123  O        139.6980    5.9580    3.6060 O.2   326  SER326     -0.2866
    124  CB       141.2880    5.4730    6.3670 C.3   326  SER326      0.2089
    125  OG       142.6200    5.0950    6.0910 O.3   326  SER326     -0.2183
    126  N        136.8330    4.3210    3.0450 N.3   329  ILE329     -0.1245
    127  CA       135.9800    5.3780    3.6100 C.3   329  ILE329      0.1561
    128  C        136.1030    6.6810    2.8210 C.2   329  ILE329      0.2260
    129  O        135.0920    7.3160    2.5030 O.2   329  ILE329     -0.2867
    130  CB       136.2820    5.6280    5.1160 C.3   329  ILE329      0.0252
    131  CG1      135.9390    4.3830    5.9390 C.3   329  ILE329      0.0019
    132  CG2      135.5190    6.8460    5.6270 C.3   329  ILE329      0.0019
    133  CD1      136.5010    4.3850    7.3460 C.3   329  ILE329      0.0001
    134  N        132.9640    8.6410    1.0250 N.3   333  ILE333     -0.1231
    135  CA       132.5500   10.0240    1.2580 C.3   333  ILE333      0.1692
    136  C        132.7340   10.9010    0.0250 C.2   333  ILE333      0.2591
    137  O        131.9370   11.8130   -0.2170 O.2   333  ILE333     -0.2718
    138  CB       133.2120   10.6560    2.5050 C.3   333  ILE333      0.0266
    139  CG1      134.7220   10.8060    2.3370 C.3   333  ILE333      0.0019
    140  CG2      132.8410    9.8670    3.7510 C.3   333  ILE333      0.0020
    141  CD1      135.4060   11.4560    3.5330 C.3   333  ILE333      0.0001
    142  N        133.7550   10.6210   -0.7810 N.am  334  LEU334     -0.1980
    143  CA       133.9600   11.4040   -2.0040 C.3   334  LEU334      0.1596
    144  C        132.8370   11.1310   -3.0140 C.2   334  LEU334      0.2287
    145  O        132.2200   12.0560   -3.5390 O.2   334  LEU334     -0.2864
    146  CB       135.3180   11.1020   -2.6180 C.3   334  LEU334      0.0297
    147  CG       135.6350   11.8210   -3.9250 C.3   334  LEU334      0.0022
    148  CD1      135.7220   13.3310   -3.7180 C.3   334  LEU334      0.0001
    149  CD2      136.9140   11.3200   -4.5050 C.3   334  LEU334      0.0001
    150  N        129.5310   12.8430   -2.1990 N.3   337  LEU337     -0.1245
    151  CA       129.5260   14.2860   -2.0450 C.3   337  LEU337      0.1561
    152  C        128.8070   14.9530   -3.2220 C.2   337  LEU337      0.2260
    153  O        129.0660   14.6230   -4.3850 O.2   337  LEU337     -0.2867
    154  CB       130.9760   14.7720   -1.9420 C.3   337  LEU337      0.0270
    155  CG       131.3040   16.2000   -1.5210 C.3   337  LEU337      0.0019
    156  CD1      130.6770   16.5520   -0.1860 C.3   337  LEU337      0.0001
    157  CD2      132.8020   16.3580   -1.4560 C.3   337  LEU337      0.0001
    158  N        129.2210   17.8360   -4.5760 N.3   339  THR339     -0.1203
    159  CA       130.1410   18.5490   -5.4760 C.3   339  THR339      0.1994
    160  C        130.9840   17.6120   -6.3620 C.2   339  THR339      0.2617
    161  O        131.6010   18.0510   -7.3400 O.2   339  THR339     -0.2717
    162  CB       131.0660   19.5190   -4.7040 C.3   339  THR339      0.1784
    163  OG1      131.8470   18.8070   -3.7380 O.3   339  THR339     -0.2211
    164  CG2      130.2450   20.5880   -3.9960 C.3   339  THR339      0.0376
    165  N        131.0060   16.3250   -6.0280 N.am  340  PHE340     -0.1975
    166  CA       131.7410   15.3390   -6.8300 C.3   340  PHE340      0.1639
    167  C        130.9880   14.8450   -8.0750 C.2   340  PHE340      0.2290
    168  O        131.5950   14.2770   -8.9870 O.2   340  PHE340     -0.2864
    169  CB       132.1200   14.1520   -5.9420 C.3   340  PHE340      0.0560
    170  CG       132.9330   13.0950   -6.6440 C.ar  340  PHE340     -0.0200
    171  CD1      134.2810   13.3000   -6.9070 C.ar  340  PHE340     -0.0042
    172  CD2      132.3530   11.8900   -7.0140 C.ar  340  PHE340     -0.0042
    173  CE1      135.0350   12.3340   -7.5490 C.ar  340  PHE340     -0.0003
    174  CE2      133.1150   10.9140   -7.6610 C.ar  340  PHE340     -0.0003
    175  CZ       134.4460   11.1390   -7.9080 C.ar  340  PHE340     -0.0000
    176  N        132.1910   15.2110  -11.5350 N.3   343  MET343     -0.1245
    177  CA       133.5590   14.7450  -11.7540 C.3   343  MET343      0.1570
    178  C        133.6430   13.3230  -12.2920 C.2   343  MET343      0.2261
    179  O        134.6960   12.9270  -12.7790 O.2   343  MET343     -0.2867
    180  CB       134.3450   14.8330  -10.4520 C.3   343  MET343      0.0387
    181  CG       134.3440   16.2700   -9.8970 C.3   343  MET343      0.0595
    182  SD       135.5590   16.4040   -8.5200 S.3   343  MET343     -0.1393
    183  CE       137.0580   16.3260   -9.5260 C.3   343  MET343      0.0692
@<TRIPOS>BOND
     1   179   178    2
     2   178   177    1
     3     1     2    1
     4   177   176    1
     5   177   180    1
     6     2     3    1
     7     2     5    1
     8     7     9   ar
     9     7     6   ar
    10     3     4    2
    11     9    11   ar
    12   180   181    1
    13     5     6    1
    14     6     8   ar
    15   181   182    1
    16    11    12    1
    17    11    10   ar
    18   183   182    1
    19     8    10   ar
    20   168   167    2
    21   167   166    1
    22   175   174   ar
    23   175   173   ar
    24   174   172   ar
    25    86    84   ar
    26    86    87   ar
    27    88    87    1
    28   173   171   ar
    29   161   160    2
    30    84    82   ar
    31    87    85   ar
    32   172   170   ar
    33   171   170   ar
    34   166   165    1
    35   166   169    1
    36   170   169    1
    37    82    81    1
    38    82    83   ar
    39    85    83   ar
    40   160   165   am
    41   160   159    1
    42    81    78    1
    43   159   162    1
    44   159   158    1
    45    78    79    1
    46    78    77    1
    47   162   164    1
    48   162   163    1
    49   149   147    1
    50    79    80    2
    51   153   152    2
    52   147   148    1
    53   147   146    1
    54    76    75    2
    55    77    75   am
    56   145   144    2
    57    75    74    1
    58    67    66    2
    59   152   151    1
    60    30    29    1
    61   144   143    1
    62   146   143    1
    63    74    73    1
    64    66    73   am
    65    66    65    1
    66   150   151    1
    67    68    65    1
    68    68    69    1
    69    28    29   ar
    70    28    26   ar
    71   151   154    1
    72   143   142    1
    73    29    27   ar
    74   154   155    1
    75   155   157    1
    76   155   156    1
    77    65    64    1
    78    69    70    1
    79    26    24   ar
    80   142   136   am
    81    27    25   ar
    82    71    70   ar
    83    70    72   ar
    84   137   136    2
    85   136   135    1
    86    24    25   ar
    87    24    23    1
    88    60    59    2
    89   134   135    1
    90    63    61    1
    91    61    62    1
    92    61    58    1
    93   135   138    1
    94    23    20    1
    95    13    14    1
    96    59    58    1
    97    58    57    1
    98   139   138    1
    99   139   141    1
   100   129   128    2
   101   138   140    1
   102   128   127    1
   103    19    20    1
   104    20    21    1
   105   126   127    1
   106    14    17    1
   107    14    15    1
   108    18    17    1
   109    57    48   am
   110    49    48    2
   111   123   122    2
   112   127   130    1
   113    15    16    2
   114   122   121    1
   115    21    31   am
   116    21    22    2
   117    48    47    1
   118    31    32    1
   119   130   132    1
   120   130   131    1
   121    35    32    1
   122    32    33    1
   123   121   120    1
   124   121   124    1
   125    47    46    1
   126    47    50    1
   127   131   133    1
   128    46    44   am
   129   125   124    1
   130    51    50    1
   131    51    52    1
   132    33    36   am
   133    33    34    2
   134    36    37    1
   135    44    43    1
   136    44    45    2
   137    42    43    1
   138    42    38   am
   139    41    40    1
   140    52    53    1
   141    37    40    1
   142    37    38    1
   143    38    39    2
   144    53    54    2
   145   114   113    2
   146   113   112    1
   147    54    55    1
   148    54    56    1
   149   115   112    1
   150   115   116    1
   151   112   111    1
   152   102   103    1
   153   102   101    2
   154   116   117    1
   155   103    97    2
   156    92    91    2
   157    96    94    1
   158   101    98    1
   159    93    95    1
   160    93    94    1
   161    93    90    1
   162   111   106   am
   163   117   118   ar
   164   117   119   ar
   165    91    90    1
   166   100    99    2
   167    97    98    1
   168   107   106    2
   169    89    90    1
   170    98    99    1
   171   106   105    1
   172    99   104   am
   173   104   105    1
   174   104   110    1
   175   105   108    1
   176   110   109    1
   177   108   109    2
