@<TRIPOS>MOLECULE
tmp/2asuB00.pdb
 119 119 0 0 0
SMALL
GASTEIGER

@<TRIPOS>ATOM
      1  N         66.9790   61.5890   18.0800 N.3     8  ASN8       -0.1225
      2  CA        67.5170   60.5040   17.2770 C.3     8  ASN8        0.1785
      3  C         66.8480   60.4950   15.8990 C.2     8  ASN8        0.2598
      4  O         65.6980   60.9020   15.7300 O.2     8  ASN8       -0.2718
      5  CB        67.3410   59.1660   17.9790 C.3     8  ASN8        0.1169
      6  CG        65.9260   58.9050   18.3450 C.2     8  ASN8        0.2627
      7  OD1       65.1320   58.4370   17.5110 O.2     8  ASN8       -0.2716
      8  ND2       65.5710   59.2260   19.5940 N.am    8  ASN8       -0.0877
      9  N         67.6070   60.0410   14.9180 N.am    9  SER9       -0.1938
     10  CA        67.1710   59.9590   13.5420 C.3     9  SER9        0.2040
     11  C         68.0070   58.8240   12.9810 C.2     9  SER9        0.2485
     12  O         69.1560   59.0310   12.6360 O.2     9  SER9       -0.2729
     13  CB        67.5230   61.2620   12.8290 C.3     9  SER9        0.2129
     14  OG        67.1360   61.1540   11.4610 O.3     9  SER9       -0.2179
     15  N         67.4830   57.6160   12.9230 N.am   10  PRO10      -0.2715
     16  CA        68.3270   56.4310   12.6370 C.3    10  PRO10       0.1536
     17  C         68.7670   56.2590   11.1820 C.2    10  PRO10       0.2598
     18  O         69.6460   55.4400   10.8700 O.2    10  PRO10      -0.2715
     19  CB        67.4450   55.2810   13.0790 C.3    10  PRO10       0.0310
     20  CG        66.0690   55.8070   12.9720 C.3    10  PRO10       0.0237
     21  CD        66.0900   57.2450   13.1850 C.3    10  PRO10       0.0939
     22  N         68.1960   57.0620   10.2940 N.am   11  TRP11      -0.1974
     23  CA        68.6140   57.1390    8.8870 C.3    11  TRP11       0.1640
     24  C         69.5960   58.2900    8.5850 C.2    11  TRP11       0.2290
     25  O         70.0550   58.4240    7.4490 O.2    11  TRP11      -0.2864
     26  CB        67.4030   57.2540    7.9460 C.3    11  TRP11       0.0576
     27  CG        66.3170   58.0370    8.5490 C.ar   11  TRP11       0.0006
     28  CD1       66.2560   59.3770    8.7420 C.ar   11  TRP11       0.0946
     29  CD2       65.1320   57.4830    9.1270 C.ar   11  TRP11       0.0152
     30  NE1       65.0840   59.6930    9.3910 N.ar   11  TRP11      -0.2442
     31  CE2       64.3810   58.5420    9.6400 C.ar   11  TRP11       0.0810
     32  CE3       64.6430   56.1720    9.2650 C.ar   11  TRP11       0.0012
     33  CZ2       63.1520   58.3450   10.2770 C.ar   11  TRP11       0.0191
     34  CZ3       63.4460   55.9770    9.8850 C.ar   11  TRP11       0.0001
     35  CH2       62.7090   57.0670   10.3900 C.ar   11  TRP11       0.0015
     36  N         67.9240   48.9790   15.8700 N.3    99  GLN99      -0.1245
     37  CA        67.0520   50.0340   16.4040 C.3    99  GLN99       0.1566
     38  C         67.6800   51.4270   16.2810 C.2    99  GLN99       0.2260
     39  O         66.9980   52.4410   16.4080 O.2    99  GLN99      -0.2867
     40  CB        66.6930   49.7370   17.8690 C.3    99  GLN99       0.0367
     41  CG        65.8580   48.4820   18.1140 C.3    99  GLN99       0.0905
     42  CD        64.5520   48.5040   17.3630 C.2    99  GLN99       0.2608
     43  OE1       63.8030   49.4940   17.4790 O.2    99  GLN99      -0.2717
     44  NE2       64.3130   47.5450   16.5260 N.am   99  GLN99      -0.0878
     45  N         68.5560   52.5960   10.6200 N.3   102  ALA102     -0.1231
     46  CA        67.3990   52.1550    9.8790 C.3   102  ALA102      0.1694
     47  C         67.3780   52.8500    8.5090 C.2   102  ALA102      0.2592
     48  O         67.7870   54.0060    8.4000 O.2   102  ALA102     -0.2718
     49  CB        66.1330   52.4690   10.6510 C.3   102  ALA102      0.0304
     50  N         66.8640   52.1490    7.5100 N.am  103  LEU103     -0.1966
     51  CA        66.6830   52.7050    6.1860 C.3   103  LEU103      0.1728
     52  C         65.4680   53.6390    6.2300 C.2   103  LEU103      0.2616
     53  O         64.4840   53.3160    6.8540 O.2   103  LEU103     -0.2715
     54  CB        66.3830   51.6150    5.1800 C.3   103  LEU103      0.0311
     55  CG        67.4410   50.4850    5.0840 C.3   103  LEU103      0.0022
     56  CD1       66.9860   49.5980    3.9450 C.3   103  LEU103      0.0001
     57  CD2       68.8110   51.0290    4.8570 C.3   103  LEU103      0.0001
     58  N         65.5420   54.7510    5.5010 N.am  104  ILE104     -0.1963
     59  CA        64.3770   55.5790    5.2570 C.3   104  ILE104      0.1727
     60  C         63.8360   55.2380    3.8790 C.2   104  ILE104      0.2616
     61  O         64.5990   54.9690    2.9270 O.2   104  ILE104     -0.2715
     62  CB        64.7280   57.0850    5.3620 C.3   104  ILE104      0.0290
     63  CG1       63.4290   57.8960    5.3610 C.3   104  ILE104      0.0022
     64  CG2       65.7220   57.5250    4.2490 C.3   104  ILE104      0.0023
     65  CD1       63.6620   59.3510    5.7490 C.3   104  ILE104      0.0001
     66  N         62.5060   55.2480    3.7410 N.am  105  CYS105     -0.1968
     67  CA        61.8730   54.9400    2.4550 C.3   105  CYS105      0.1712
     68  C         62.0790   56.0150    1.3980 C.2   105  CYS105      0.2296
     69  O         62.1790   57.1780    1.7170 O.2   105  CYS105     -0.2864
     70  CB        60.3920   54.7290    2.6140 C.3   105  CYS105      0.0983
     71  SG        59.9060   53.4740    3.7720 S.3   105  CYS105     -0.0798
     72  N         60.8360   66.1870    9.5500 N.3   120  GLU120     -0.1245
     73  CA        61.9170   66.3470   10.4880 C.3   120  GLU120      0.1567
     74  C         63.2160   66.5820    9.7460 C.2   120  GLU120      0.2260
     75  O         63.5150   65.9110    8.7810 O.2   120  GLU120     -0.2867
     76  CB        61.9900   65.0760   11.3810 C.3   120  GLU120      0.0388
     77  CG        63.1950   65.0450   12.2810 C.3   120  GLU120      0.1160
     78  CD        63.1710   63.8170   13.2250 C.2   120  GLU120      0.3649
     79  OE1       63.7070   62.7630   12.8260 O.co2 120  GLU120     -0.2457
     80  OE2       62.5950   63.9060   14.3410 O.co2 120  GLU120     -0.2457
     81  N         56.7030   61.9940    7.7820 N.3   185  PHE185     -0.1241
     82  CA        55.9540   60.8490    8.2290 C.3   185  PHE185      0.1605
     83  C         54.5690   60.8420    7.6010 C.2   185  PHE185      0.2264
     84  O         53.6910   61.6680    7.9400 O.2   185  PHE185     -0.2867
     85  CB        55.8520   60.8040    9.7460 C.3   185  PHE185      0.0534
     86  CG        55.2010   59.5450   10.2560 C.ar  185  PHE185     -0.0203
     87  CD1       55.8190   58.3420   10.1370 C.ar  185  PHE185     -0.0042
     88  CD2       53.9340   59.5900   10.8450 C.ar  185  PHE185     -0.0042
     89  CE1       55.2400   57.1830   10.5900 C.ar  185  PHE185     -0.0003
     90  CE2       53.3400   58.4270   11.2930 C.ar  185  PHE185     -0.0003
     91  CZ        53.9840   57.2230   11.1550 C.ar  185  PHE185     -0.0000
     92  N         51.8360   56.1070    7.1400 N.3   188  ASN188     -0.1225
     93  CA        52.4160   55.1160    8.0780 C.3   188  ASN188      0.1785
     94  C         53.8850   54.7440    7.8230 C.2   188  ASN188      0.2598
     95  O         54.3350   53.6790    8.2740 O.2   188  ASN188     -0.2718
     96  CB        51.5500   53.8310    8.1210 C.3   188  ASN188      0.1169
     97  CG        50.0950   54.1310    8.4460 C.2   188  ASN188      0.2627
     98  OD1       49.2180   54.0810    7.5640 O.2   188  ASN188     -0.2716
     99  ND2       49.8420   54.4840    9.6950 N.am  188  ASN188     -0.0877
    100  N         54.6210   55.6080    7.1090 N.am  189  SER189     -0.1938
    101  CA        56.0750   55.4350    6.8860 C.3   189  SER189      0.2055
    102  C         56.8120   56.7940    6.9880 C.2   189  SER189      0.2643
    103  O         56.2720   57.8280    6.6110 O.2   189  SER189     -0.2714
    104  CB        56.4030   54.8380    5.4970 C.3   189  SER189      0.2130
    105  OG        55.7340   53.5800    5.1960 O.3   189  SER189     -0.2179
    106  N         58.0560   56.7580    7.4710 N.am  190  TRP190     -0.1973
    107  CA        58.9790   57.8750    7.2980 C.3   190  TRP190      0.1640
    108  C         59.5480   57.7850    5.8760 C.2   190  TRP190      0.2290
    109  O         60.1240   56.7600    5.5010 O.2   190  TRP190     -0.2864
    110  CB        60.1100   57.7680    8.3200 C.3   190  TRP190      0.0576
    111  CG        59.6360   58.0860    9.6750 C.ar  190  TRP190      0.0006
    112  CD1       59.2500   57.1870   10.6480 C.ar  190  TRP190      0.0946
    113  CD2       59.4890   59.3770   10.2410 C.ar  190  TRP190      0.0152
    114  NE1       58.8770   57.8660   11.7860 N.ar  190  TRP190     -0.2442
    115  CE2       59.0190   59.2090   11.5690 C.ar  190  TRP190      0.0810
    116  CE3       59.7260   60.6770    9.7830 C.ar  190  TRP190      0.0012
    117  CZ2       58.7660   60.2780   12.4060 C.ar  190  TRP190      0.0191
    118  CZ3       59.4860   61.7380   10.6370 C.ar  190  TRP190      0.0001
    119  CH2       59.0080   61.5340   11.9260 C.ar  190  TRP190      0.0015
@<TRIPOS>BOND
     1    68    69    2
     2    68    67    1
     3    67    70    1
     4    67    66    1
     5    70    71    1
     6    61    60    2
     7    66    60   am
     8    60    59    1
     9    56    55    1
    10    64    62    1
    11    57    55    1
    12    55    54    1
    13    54    51    1
    14   105   104    1
    15    59    62    1
    16    59    58    1
    17    63    62    1
    18    63    65    1
    19   104   101    1
    20    58    52   am
    21   109   108    2
    22   108   107    1
    23    51    52    1
    24    51    50    1
    25    52    53    2
    26   103   102    2
    27   101   102    1
    28   101   100    1
    29   102   106   am
    30   100    94   am
    31    92    93    1
    32   107   106    1
    33   107   110    1
    34    25    24    2
    35    50    47   am
    36    98    97    2
    37    83    84    2
    38    83    82    1
    39    81    82    1
    40    94    93    1
    41    94    95    2
    42    26    27    1
    43    26    23    1
    44    93    96    1
    45    96    97    1
    46    82    85    1
    47   110   111    1
    48    48    47    2
    49    97    99   am
    50    47    46    1
    51    27    28   ar
    52    27    29   ar
    53    24    23    1
    54    28    30   ar
    55    75    74    2
    56    23    22    1
    57    29    32   ar
    58    29    31   ar
    59    32    34   ar
    60    30    31   ar
    61    72    73    1
    62    31    33   ar
    63   111   113   ar
    64   111   112   ar
    65    85    86    1
    66    74    73    1
    67   116   113   ar
    68   116   118   ar
    69    46    45    1
    70    46    49    1
    71    34    35   ar
    72    87    86   ar
    73    87    89   ar
    74   113   115   ar
    75    86    88   ar
    76    33    35   ar
    77    22    17   am
    78    73    76    1
    79    89    91   ar
    80   118   119   ar
    81   112   114   ar
    82    88    90   ar
    83    18    17    2
    84    91    90   ar
    85    17    16    1
    86    76    77    1
    87    14    13    1
    88   115   114   ar
    89   115   117   ar
    90   119   117   ar
    91    77    78    1
    92    12    11    2
    93    16    15    1
    94    16    19    1
    95    79    78   ar
    96    13    10    1
    97    15    11   am
    98    15    21    1
    99    20    19    1
   100    20    21    1
   101    11    10    1
   102    78    80   ar
   103    10     9    1
   104     9     3   am
   105     4     3    2
   106    36    37    1
   107     3     2    1
   108    38    37    1
   109    38    39    2
   110    37    40    1
   111    44    42   am
   112     2     5    1
   113     2     1    1
   114    42    43    2
   115    42    41    1
   116     7     6    2
   117    40    41    1
   118     5     6    1
   119     6     8   am
