@<TRIPOS>MOLECULE
tmp/2at9A06.pdb
 130 119 0 0 0
SMALL
GASTEIGER

@<TRIPOS>ATOM
      1  N         25.3980   -7.8390   -7.2350 N.3    10  LEU10      -0.1245
      2  CA        26.1040   -7.9000   -5.9700 C.3    10  LEU10       0.1561
      3  C         25.3110   -7.3910   -4.7550 C.2    10  LEU10       0.2260
      4  O         25.7300   -7.5830   -3.6140 O.2    10  LEU10      -0.2867
      5  CB        27.4110   -7.1210   -6.1190 C.3    10  LEU10       0.0270
      6  CG        28.2930   -6.9320   -4.8940 C.3    10  LEU10       0.0019
      7  CD1       28.5410   -8.2540   -4.1840 C.3    10  LEU10       0.0001
      8  CD2       29.5960   -6.3320   -5.3470 C.3    10  LEU10       0.0001
      9  N         24.9830   -9.5030   -0.8540 N.3    14  LEU14      -0.1245
     10  CA        25.2120   -8.7250    0.3460 C.3    14  LEU14       0.1561
     11  C         23.9900   -8.5980    1.2460 C.2    14  LEU14       0.2260
     12  O         24.0370   -8.9260    2.4330 O.2    14  LEU14      -0.2867
     13  CB        25.6710   -7.3340   -0.0460 C.3    14  LEU14       0.0270
     14  CG        27.1500   -7.2540   -0.3750 C.3    14  LEU14       0.0019
     15  CD1       27.6580   -5.8470   -0.0790 C.3    14  LEU14       0.0001
     16  CD2       27.9010   -8.3120    0.4320 C.3    14  LEU14       0.0001
     17  N         26.2640    6.8630   22.8340 N.3   164  SER164     -0.1202
     18  CA        27.1050    6.4320   21.7210 C.3   164  SER164      0.2020
     19  C         26.2980    5.5820   20.7490 C.2   164  SER164      0.2619
     20  O         25.9920    6.0190   19.6370 O.2   164  SER164     -0.2717
     21  CB        28.3090    5.6160   22.2210 C.3   164  SER164      0.2103
     22  OG        28.8700    4.8200   21.1840 O.3   164  SER164     -0.2182
     23  N         25.9480    4.3750   21.1830 N.am  165  THR165     -0.1952
     24  CA        25.1910    3.4720   20.3360 C.3   165  THR165      0.1897
     25  C         24.1840    4.2800   19.5620 C.2   165  THR165      0.2313
     26  O         23.8830    3.9410   18.4240 O.2   165  THR165     -0.2863
     27  CB        24.4480    2.3730   21.1420 C.3   165  THR165      0.1794
     28  OG1       25.2560    1.1900   21.1820 O.3   165  THR165     -0.2208
     29  CG2       23.1280    2.0110   20.4860 C.3   165  THR165      0.0378
     30  N         26.0230    7.1250   17.0750 N.3   168  VAL168     -0.1245
     31  CA        26.9030    6.5230   16.0810 C.3   168  VAL168      0.1561
     32  C         26.0780    6.1010   14.8650 C.2   168  VAL168      0.2260
     33  O         26.5880    6.0350   13.7470 O.2   168  VAL168     -0.2867
     34  CB        27.7020    5.3270   16.6700 C.3   168  VAL168      0.0252
     35  CG1       28.8980    5.8620   17.4430 C.3   168  VAL168      0.0019
     36  CG2       26.8180    4.4700   17.5870 C.3   168  VAL168      0.0019
     37  N         25.3790    8.0740   11.3070 N.3   172  VAL172     -0.1245
     38  CA        25.4400    7.2380   10.1040 C.3   172  VAL172      0.1561
     39  C         24.1790    7.4040    9.2680 C.2   172  VAL172      0.2260
     40  O         24.1210    6.9610    8.1200 O.2   172  VAL172     -0.2867
     41  CB        25.6080    5.7410   10.4300 C.3   172  VAL172      0.0252
     42  CG1       24.9270    4.8770    9.3520 C.3   172  VAL172      0.0019
     43  CG2       27.0800    5.4020   10.4910 C.3   172  VAL172      0.0019
     44  N         24.5700   11.2550    7.4540 N.3   175  VAL175     -0.1231
     45  CA        25.5640   11.2910    6.3970 C.3   175  VAL175      0.1692
     46  C         25.2200   10.4280    5.2140 C.2   175  VAL175      0.2591
     47  O         25.2440   10.8730    4.0680 O.2   175  VAL175     -0.2718
     48  CB        26.9310   10.8060    6.8950 C.3   175  VAL175      0.0266
     49  CG1       27.9870   11.0390    5.8060 C.3   175  VAL175      0.0020
     50  CG2       27.2960   11.5200    8.1900 C.3   175  VAL175      0.0020
     51  N         24.9220    9.1700    5.5070 N.am  176  LEU176     -0.1980
     52  CA        24.6180    8.2040    4.4710 C.3   176  LEU176      0.1596
     53  C         23.3660    8.5230    3.7030 C.2   176  LEU176      0.2287
     54  O         23.3450    8.4170    2.4820 O.2   176  LEU176     -0.2864
     55  CB        24.5160    6.8220    5.0760 C.3   176  LEU176      0.0297
     56  CG        24.8920    5.7200    4.0910 C.3   176  LEU176      0.0022
     57  CD1       26.0700    6.1230    3.2250 C.3   176  LEU176      0.0001
     58  CD2       25.1800    4.4580    4.8960 C.3   176  LEU176      0.0001
     59  N         24.4060    1.2400   -4.4110 N.3   204  MET204     -0.1230
     60  CA        24.4690    0.0480   -3.5490 C.3   204  MET204      0.1702
     61  C         25.3950    0.1780   -2.3310 C.2   204  MET204      0.2592
     62  O         25.1070   -0.4000   -1.2820 O.2   204  MET204     -0.2718
     63  CB        24.8660   -1.1880   -4.3510 C.3   204  MET204      0.0401
     64  CG        24.9460   -2.4740   -3.5040 C.3   204  MET204      0.0596
     65  SD        26.4040   -2.5960   -2.4160 S.3   204  MET204     -0.1393
     66  CE        27.7510   -2.3810   -3.5760 C.3   204  MET204      0.0692
     67  N         26.5030    0.9140   -2.4690 N.am  205  VAL205     -0.1980
     68  CA        27.4300    1.1320   -1.3430 C.3   205  VAL205      0.1595
     69  C         26.7110    2.0100   -0.3540 C.2   205  VAL205      0.2287
     70  O         27.0130    2.0110    0.8360 O.2   205  VAL205     -0.2864
     71  CB        28.7210    1.9040   -1.7260 C.3   205  VAL205      0.0276
     72  CG1       29.7890    0.9460   -2.1740 C.3   205  VAL205      0.0022
     73  CG2       28.4190    2.9330   -2.7940 C.3   205  VAL205      0.0022
     74  N         23.8850   -0.8240    1.3580 N.3   208  VAL208     -0.1231
     75  CA        24.5480   -1.7040    2.3270 C.3   208  VAL208      0.1692
     76  C         25.0260   -0.9590    3.5550 C.2   208  VAL208      0.2592
     77  O         24.5650   -1.2240    4.6630 O.2   208  VAL208     -0.2718
     78  CB        25.7590   -2.4110    1.7200 C.3   208  VAL208      0.0266
     79  CG1       25.3110   -3.4950    0.7750 C.3   208  VAL208      0.0020
     80  CG2       26.6050   -1.4230    1.0040 C.3   208  VAL208      0.0020
     81  N         25.9520   -0.0190    3.3600 N.am  209  SER209     -0.1952
     82  CA        26.4880    0.7680    4.4780 C.3   209  SER209      0.1924
     83  C         25.3400    1.3470    5.2790 C.2   209  SER209      0.2314
     84  O         25.5400    1.9180    6.3450 O.2   209  SER209     -0.2863
     85  CB        27.3790    1.9090    3.9780 C.3   209  SER209      0.2116
     86  OG        26.6330    2.8070    3.1840 O.3   209  SER209     -0.2180
     87  N         22.9070   -3.7850    5.9380 N.3   212  VAL212     -0.1231
     88  CA        23.8230   -4.8300    6.4190 C.3   212  VAL212      0.1692
     89  C         24.6550   -4.2560    7.5670 C.2   212  VAL212      0.2592
     90  O         24.5240   -4.6720    8.7140 O.2   212  VAL212     -0.2718
     91  CB        24.7870   -5.2990    5.3080 C.3   212  VAL212      0.0266
     92  CG1       24.1770   -6.4570    4.5880 C.3   212  VAL212      0.0020
     93  CG2       25.0700   -4.1670    4.3340 C.3   212  VAL212      0.0020
     94  N         25.4840   -3.2740    7.2300 N.am  213  GLY213     -0.1957
     95  CA        26.3010   -2.6210    8.2180 C.3   213  GLY213      0.1869
     96  C         25.4700   -2.0490    9.3570 C.2   213  GLY213      0.2309
     97  O         25.6860   -2.4110   10.5220 O.2   213  GLY213     -0.2863
     98  N         24.2040   -4.2600   12.1340 N.3   216  LEU216     -0.1231
     99  CA        25.3440   -4.7410   12.9050 C.3   216  LEU216      0.1693
    100  C         25.6920   -3.6450   13.9010 C.2   216  LEU216      0.2591
    101  O         25.5780   -3.8500   15.1070 O.2   216  LEU216     -0.2718
    102  CB        26.5750   -5.0000   12.0280 C.3   216  LEU216      0.0284
    103  CG        26.4930   -5.3530   10.5410 C.3   216  LEU216      0.0019
    104  CD1       27.9080   -5.4620   10.0230 C.3   216  LEU216      0.0001
    105  CD2       25.7500   -6.6640   10.3120 C.3   216  LEU216      0.0001
    106  N         26.0900   -2.4810   13.3800 N.am  217  ILE217     -0.1980
    107  CA        26.4780   -1.3290   14.1940 C.3   217  ILE217      0.1595
    108  C         25.5870   -1.1460   15.4280 C.2   217  ILE217      0.2287
    109  O         25.9020   -0.3610   16.3310 O.2   217  ILE217     -0.2864
    110  CB        26.4920   -0.0040   13.3320 C.3   217  ILE217      0.0276
    111  CG1       27.8360    0.1330   12.6100 C.3   217  ILE217      0.0022
    112  CG2       26.3290    1.2370   14.2080 C.3   217  ILE217      0.0022
    113  CD1       28.0270    1.4620   11.8840 C.3   217  ILE217      0.0001
    114  N         25.2110   -5.5260   17.8060 N.3   220  ARG220     -0.1231
    115  CA        26.4510   -5.9670   18.4280 C.3   220  ARG220      0.1694
    116  C         26.4030   -5.2900   19.7920 C.2   220  ARG220      0.2592
    117  O         26.7340   -5.8820   20.8210 O.2   220  ARG220     -0.2718
    118  CB        27.6660   -5.4660   17.6350 C.3   220  ARG220      0.0321
    119  CG        29.0550   -5.7890   18.2470 C.3   220  ARG220      0.0489
    120  CD        30.0390   -6.3630   17.1970 C.3   220  ARG220      0.2205
    121  NE        31.3270   -6.7560   17.7640 N.pl3 220  ARG220     -0.0865
    122  CZ        32.3710   -5.9390   17.8790 C.cat 220  ARG220      0.5346
    123  NH1       32.2750   -4.6800   17.4660 N.pl3 220  ARG220      0.1354
    124  NH2       33.5260   -6.3820   18.3750 N.pl3 220  ARG220      0.1354
    125  N         25.9590   -4.0400   19.7850 N.am  221  SER221     -0.1952
    126  CA        25.8630   -3.2610   21.0110 C.3   221  SER221      0.1924
    127  C         24.6510   -3.6450   21.8050 C.2   221  SER221      0.2314
    128  O         23.7580   -4.3140   21.2960 O.2   221  SER221     -0.2863
    129  CB        25.7660   -1.7640   20.6940 C.3   221  SER221      0.2116
    130  OG        24.5260   -1.2280   21.1440 O.3   221  SER221     -0.2180
@<TRIPOS>BOND
     1     1     2    1
     2     5     2    1
     3     5     6    1
     4     2     3    1
     5     8     6    1
     6     6     7    1
     7     3     4    2
     8    59    60    1
     9    63    60    1
    10    63    64    1
    11    66    65    1
    12    60    61    1
    13    64    65    1
    14    73    71    1
    15    67    61   am
    16    67    68    1
    17    61    62    2
    18    72    71    1
    19    71    68    1
    20    68    69    1
    21     9    10    1
    22    14    15    1
    23    14    13    1
    24    14    16    1
    25    69    70    2
    26    13    10    1
    27    10    11    1
    28    79    78    1
    29    80    78    1
    30    11    12    2
    31    74    75    1
    32    78    75    1
    33    75    76    1
    34    54    53    2
    35    86    85    1
    36    57    56    1
    37    81    76   am
    38    81    82    1
    39    76    77    2
    40    53    52    1
    41    85    82    1
    42    47    46    2
    43    56    58    1
    44    56    55    1
    45    93    91    1
    46    52    55    1
    47    52    51    1
    48    82    83    1
    49    92    91    1
    50    46    51   am
    51    46    45    1
    52    83    84    2
    53    91    88    1
    54    49    48    1
    55    87    88    1
    56    45    48    1
    57    45    44    1
    58    88    89    1
    59    48    50    1
    60    94    89   am
    61    94    95    1
    62    89    90    2
    63    40    39    2
    64    95    96    1
    65    39    38    1
    66    42    41    1
    67    96    97    2
    68   104   103    1
    69    38    41    1
    70    38    37    1
    71   105   103    1
    72    41    43    1
    73   103   102    1
    74   113   111    1
    75   102    99    1
    76    98    99    1
    77   111   110    1
    78    99   100    1
    79   110   107    1
    80   110   112    1
    81   106   100   am
    82   106   107    1
    83    33    32    2
    84   100   101    2
    85   107   108    1
    86    32    31    1
    87   108   109    2
    88    31    34    1
    89    31    30    1
    90    34    35    1
    91    34    36    1
    92   120   121    1
    93   120   119    1
    94   123   122    1
    95   118   119    1
    96   118   115    1
    97   121   122    2
    98   114   115    1
    99   122   124    1
   100    26    25    2
   101   115   116    1
   102    25    24    1
   103    20    19    2
   104   125   116   am
   105   125   126    1
   106   116   117    2
   107    24    27    1
   108    24    23    1
   109    29    27    1
   110   129   126    1
   111   129   130    1
   112    19    23   am
   113    19    18    1
   114   126   127    1
   115    27    28    1
   116    22    21    1
   117   128   127    2
   118    18    21    1
   119    18    17    1
