@<TRIPOS>MOLECULE
tmp/2atiB01.pdb
 98 93 0 0 0
SMALL
GASTEIGER

@<TRIPOS>ATOM
      1  N         23.3780   93.9970  102.9180 N.3    45  TRP45      -0.1227
      2  CA        23.7630   92.5990  103.1150 C.3    45  TRP45       0.1737
      3  C         22.5280   91.7020  103.0850 C.2    45  TRP45       0.2595
      4  O         22.5160   90.6920  102.3690 O.2    45  TRP45      -0.2718
      5  CB        24.5410   92.4290  104.4260 C.3    45  TRP45       0.0564
      6  CG        25.4370   91.2070  104.5090 C.ar   45  TRP45       0.0003
      7  CD1       25.7460   90.3140  103.5020 C.ar   45  TRP45       0.0946
      8  CD2       26.1090   90.7340  105.6750 C.ar   45  TRP45       0.0152
      9  NE1       26.5540   89.3140  103.9800 N.ar   45  TRP45      -0.2442
     10  CE2       26.7990   89.5430  105.3090 C.ar   45  TRP45       0.0810
     11  CE3       26.1970   91.1950  107.0080 C.ar   45  TRP45       0.0012
     12  CZ2       27.5720   88.8020  106.2290 C.ar   45  TRP45       0.0191
     13  CZ3       26.9670   90.4550  107.9320 C.ar   45  TRP45       0.0001
     14  CH2       27.6450   89.2690  107.5290 C.ar   45  TRP45       0.0015
     15  N         21.4830   92.1140  103.8100 N.am   46  ILE46      -0.1980
     16  CA        20.2200   91.3770  103.8570 C.3    46  ILE46       0.1595
     17  C         19.5730   91.3560  102.4700 C.2    46  ILE46       0.2287
     18  O         19.2340   90.2780  101.9780 O.2    46  ILE46      -0.2864
     19  CB        19.2220   91.9630  104.9150 C.3    46  ILE46       0.0276
     20  CG1       19.7760   91.7610  106.3310 C.3    46  ILE46       0.0022
     21  CG2       17.8490   91.2750  104.8100 C.3    46  ILE46       0.0022
     22  CD1       19.0030   92.4960  107.4300 C.3    46  ILE46       0.0001
     23  N         21.4470   89.0010   99.8450 N.3    49  GLN49      -0.1231
     24  CA        21.1870   87.5780  100.0790 C.3    49  GLN49       0.1698
     25  C         19.7230   87.1990   99.8720 C.2    49  GLN49       0.2592
     26  O         19.4160   86.0490   99.5330 O.2    49  GLN49      -0.2718
     27  CB        21.6920   87.1360  101.4580 C.3    49  GLN49       0.0381
     28  CG        23.1940   87.3940  101.7100 C.3    49  GLN49       0.0905
     29  CD        24.1240   86.8230  100.6530 C.2    49  GLN49       0.2608
     30  OE1       24.0430   85.6490  100.3010 O.2    49  GLN49      -0.2717
     31  NE2       25.0260   87.6620  100.1530 N.am   49  GLN49      -0.0878
     32  N         18.8450   88.2000   99.9950 N.am   50  GLN50      -0.1979
     33  CA        17.4040   88.0430   99.7890 C.3    50  GLN50       0.1601
     34  C         17.1530   87.9810   98.2800 C.2    50  GLN50       0.2287
     35  O         16.3310   87.1830   97.8210 O.2    50  GLN50      -0.2864
     36  CB        16.6470   89.2310  100.3960 C.3    50  GLN50       0.0394
     37  CG        15.1190   89.1320  100.3860 C.3    50  GLN50       0.0908
     38  CD        14.4290   90.4430  100.7480 C.2    50  GLN50       0.2608
     39  OE1       13.2320   90.6060  100.5080 O.2    50  GLN50      -0.2717
     40  NE2       15.1760   91.3770  101.3300 N.am   50  GLN50      -0.0878
     41  N         17.9740   84.6440   96.8650 N.3    53  TYR53      -0.1241
     42  CA        16.9520   83.6650   97.2200 C.3    53  TYR53       0.1605
     43  C         15.7390   83.8480   96.3030 C.2    53  TYR53       0.2264
     44  O         15.1740   82.8690   95.8220 O.2    53  TYR53      -0.2867
     45  CB        16.5570   83.8050   98.7080 C.3    53  TYR53       0.0534
     46  CG        15.3960   82.9270   99.1710 C.ar   53  TYR53      -0.0201
     47  CD1       15.4860   81.5150   99.1410 C.ar   53  TYR53      -0.0009
     48  CD2       14.1850   83.5090   99.6120 C.ar   53  TYR53      -0.0009
     49  CE1       14.3850   80.6960   99.5360 C.ar   53  TYR53       0.0417
     50  CE2       13.0770   82.7040  100.0110 C.ar   53  TYR53       0.0417
     51  CZ        13.1870   81.3010   99.9670 C.ar   53  TYR53       0.1957
     52  OH        12.1150   80.5200  100.3460 O.3    53  TYR53      -0.2866
     53  N         24.9860   80.3640   91.4350 N.3    59  ARG59      -0.1245
     54  CA        25.9020   80.7210   92.5080 C.3    59  ARG59       0.1563
     55  C         27.3230   80.1960   92.3170 C.2    59  ARG59       0.2260
     56  O         27.5270   79.0970   91.8000 O.2    59  ARG59      -0.2867
     57  CB        25.3390   80.2450   93.8500 C.3    59  ARG59       0.0307
     58  CG        24.0910   81.0010   94.3040 C.3    59  ARG59       0.0489
     59  CD        23.4830   80.3520   95.5330 C.3    59  ARG59       0.2205
     60  NE        22.5700   81.2360   96.2570 N.pl3  59  ARG59      -0.0865
     61  CZ        21.2450   81.1160   96.2600 C.cat  59  ARG59       0.5346
     62  NH1       20.6530   80.1490   95.5680 N.pl3  59  ARG59       0.1354
     63  NH2       20.5080   81.9340   96.9980 N.pl3  59  ARG59       0.1354
     64  N         29.8050   87.3110  112.1080 N.3   169  LYS169     -0.1245
     65  CA        28.5580   87.0740  112.8050 C.3   169  LYS169      0.1561
     66  C         28.2940   85.5890  112.7190 C.2   169  LYS169      0.2260
     67  O         28.1640   85.0350  111.6210 O.2   169  LYS169     -0.2867
     68  CB        27.4000   87.8750  112.1970 C.3   169  LYS169      0.0271
     69  CG        26.0050   87.5650  112.7840 C.3   169  LYS169      0.0035
     70  CD        25.8480   88.0050  114.2230 C.3   169  LYS169      0.0206
     71  CE        24.4970   87.5720  114.7750 C.3   169  LYS169      0.1093
     72  NZ        24.2920   86.0950  114.8690 N.3   169  LYS169     -0.1314
     73  N         26.4640   82.0690  112.7810 N.3   171  ARG171     -0.1245
     74  CA        25.2090   81.6030  112.1930 C.3   171  ARG171      0.1563
     75  C         24.9010   80.2640  112.8700 C.2   171  ARG171      0.2260
     76  O         25.0810   79.1950  112.2600 O.2   171  ARG171     -0.2867
     77  CB        25.3530   81.4150  110.6750 C.3   171  ARG171      0.0307
     78  CG        25.8500   82.6270  109.9000 C.3   171  ARG171      0.0489
     79  CD        24.9570   83.8730  110.0760 C.3   171  ARG171      0.2205
     80  NE        23.5320   83.6210  109.8390 N.pl3 171  ARG171     -0.0865
     81  CZ        22.9360   83.6790  108.6520 C.cat 171  ARG171      0.5346
     82  NH1       23.6260   83.9850  107.5630 N.pl3 171  ARG171      0.1354
     83  NH2       21.6390   83.4350  108.5580 N.pl3 171  ARG171      0.1354
     84  N         29.7450   84.3070  109.3280 N.3   205  ASP205     -0.1239
     85  CA        29.6610   85.1160  108.1160 C.3   205  ASP205      0.1674
     86  C         30.2780   86.4860  108.2560 C.2   205  ASP205      0.2266
     87  O         29.9660   87.2120  109.1910 O.2   205  ASP205     -0.2867
     88  CB        28.2140   85.2790  107.6690 C.3   205  ASP205      0.1410
     89  CG        27.6310   84.0110  107.0920 C.2   205  ASP205      0.3668
     90  OD1       26.4330   84.0350  106.7300 O.co2 205  ASP205     -0.2456
     91  OD2       28.3570   82.9950  107.0080 O.co2 205  ASP205     -0.2456
     92  N         28.9890   87.2760  100.9080 N.3   218  THR218     -0.1218
     93  CA        29.3690   86.5870  102.1280 C.3   218  THR218      0.1862
     94  C         30.6160   85.6940  102.0470 C.2   218  THR218      0.2287
     95  O         30.8600   85.0270  101.0450 O.2   218  THR218     -0.2866
     96  CB        28.1380   85.7400  102.6100 C.3   218  THR218      0.1770
     97  OG1       27.0940   86.6210  103.0320 O.3   218  THR218     -0.2211
     98  CG2       28.4710   84.7930  103.7480 C.3   218  THR218      0.0375
@<TRIPOS>BOND
     1    53    54    1
     2    56    55    2
     3    55    54    1
     4    54    57    1
     5    57    58    1
     6    58    59    1
     7    59    60    1
     8    62    61    1
     9    44    43    2
    10    60    61    2
    11    61    63    1
    12    43    42    1
    13    41    42    1
    14    42    45    1
    15    35    34    2
    16    34    33    1
    17    45    46    1
    18    47    46   ar
    19    47    49   ar
    20    46    48   ar
    21    26    25    2
    22    49    51   ar
    23    48    50   ar
    24    33    32    1
    25    33    36    1
    26    23    24    1
    27    25    32   am
    28    25    24    1
    29    51    50   ar
    30    51    52    1
    31    24    27    1
    32    31    29   am
    33    30    29    2
    34    37    36    1
    35    37    38    1
    36    39    38    2
    37    29    28    1
    38    38    40   am
    39    92    93    1
    40    95    94    2
    41    27    28    1
    42    18    17    2
    43    94    93    1
    44    93    96    1
    45     4     3    2
    46    17    16    1
    47    96    97    1
    48    96    98    1
    49     1     2    1
    50     3     2    1
    51     3    15   am
    52     2     5    1
    53     7     9   ar
    54     7     6   ar
    55    15    16    1
    56    16    19    1
    57     9    10   ar
    58     5     6    1
    59     6     8   ar
    60    21    19    1
    61    19    20    1
    62    10     8   ar
    63    10    12   ar
    64     8    11   ar
    65    12    14   ar
    66    20    22    1
    67    90    89   ar
    68    11    13   ar
    69    91    89   ar
    70    89    88    1
    71    14    13   ar
    72    82    81    1
    73    88    85    1
    74    85    86    1
    75    85    84    1
    76    86    87    2
    77    83    81    1
    78    81    80    2
    79    80    79    1
    80    78    79    1
    81    78    77    1
    82    77    74    1
    83    67    66    2
    84    64    65    1
    85    74    73    1
    86    74    75    1
    87    68    69    1
    88    68    65    1
    89    76    75    2
    90    66    65    1
    91    69    70    1
    92    70    71    1
    93    71    72    1
