@<TRIPOS>MOLECULE
tmp/2atoA00.pdb
 77 74 0 0 0
SMALL
GASTEIGER

@<TRIPOS>ATOM
      1  N         37.2030   58.2330   70.0770 N.3    19  GLN19      -0.1245
      2  CA        35.8200   58.5030   70.4500 C.3    19  GLN19       0.1566
      3  C         35.2050   57.3590   71.2600 C.2    19  GLN19       0.2260
      4  O         34.1290   57.5040   71.8360 O.2    19  GLN19      -0.2867
      5  CB        34.9810   58.7510   69.1920 C.3    19  GLN19       0.0367
      6  CG        34.8160   57.5180   68.3040 C.3    19  GLN19       0.0905
      7  CD        34.1490   57.8140   66.9680 C.2    19  GLN19       0.2608
      8  OE1       34.7340   58.4500   66.0930 O.2    19  GLN19      -0.2717
      9  NE2       32.9110   57.3510   66.8100 N.am   19  GLN19      -0.0878
     10  N         33.2180   53.9660   71.9910 N.3    21  GLN21      -0.1231
     11  CA        32.0680   53.3080   71.3730 C.3    21  GLN21       0.1698
     12  C         30.9790   54.2990   70.9670 C.2    21  GLN21       0.2592
     13  O         30.1060   53.9860   70.1600 O.2    21  GLN21      -0.2718
     14  CB        31.4770   52.2760   72.3450 C.3    21  GLN21       0.0381
     15  CG        32.4880   51.2760   72.8870 C.3    21  GLN21       0.0905
     16  CD        33.3760   50.7040   71.7980 C.2    21  GLN21       0.2608
     17  OE1       32.8940   50.2350   70.7660 O.2    21  GLN21      -0.2717
     18  NE2       34.6840   50.7400   72.0230 N.am   21  GLN21      -0.0878
     19  N         31.0520   55.4950   71.5320 N.am   22  CYS22      -0.1956
     20  CA        30.0920   56.5600   71.2650 C.3    22  CYS22       0.1843
     21  C         30.1630   57.0630   69.8180 C.2    22  CYS22       0.2626
     22  O         31.2510   57.2510   69.2720 O.2    22  CYS22      -0.2714
     23  CB        30.3640   57.6970   72.2610 C.3    22  CYS22       0.0997
     24  SG        29.4190   59.2400   72.1030 S.3    22  CYS22      -0.0797
     25  N         29.0010   57.2560   69.1940 N.am   23  GLY23      -0.1954
     26  CA        28.9650   57.7430   67.8200 C.3    23  GLY23       0.1869
     27  C         29.1000   59.2540   67.8060 C.2    23  GLY23       0.2309
     28  O         28.2480   59.9750   67.2800 O.2    23  GLY23      -0.2863
     29  N         31.7980   60.9390   66.4600 N.3    25  CYS25      -0.1235
     30  CA        32.8040   61.3620   65.4870 C.3    25  CYS25       0.1677
     31  C         32.5590   62.8010   65.0170 C.2    25  CYS25       0.2270
     32  O         33.5090   63.5540   64.7860 O.2    25  CYS25      -0.2867
     33  CB        32.7910   60.4220   64.2850 C.3    25  CYS25       0.0956
     34  SG        31.2290   60.4590   63.4010 S.3    25  CYS25      -0.0801
     35  N         32.6010   55.1810   55.9670 N.3   137  ALA137     -0.1231
     36  CA        33.6790   54.4110   56.5770 C.3   137  ALA137      0.1694
     37  C         33.1630   53.0900   57.1410 C.2   137  ALA137      0.2592
     38  O         33.7020   52.5720   58.1160 O.2   137  ALA137     -0.2718
     39  CB        34.3270   55.2360   57.6820 C.3   137  ALA137      0.0304
     40  N         32.1290   52.5360   56.5120 N.am  138  SER138     -0.1952
     41  CA        31.5260   51.2920   56.9760 C.3   138  SER138      0.1924
     42  C         32.1730   50.0120   56.4560 C.2   138  SER138      0.2314
     43  O         31.8830   48.9290   56.9560 O.2   138  SER138     -0.2863
     44  CB        30.0450   51.2670   56.6000 C.3   138  SER138      0.2116
     45  OG        29.8880   51.1810   55.1910 O.3   138  SER138     -0.2180
     46  N         28.3920   58.0670   57.0270 N.3   161  ASN161     -0.1225
     47  CA        28.0830   57.5250   58.3380 C.3   161  ASN161      0.1785
     48  C         29.1870   57.8020   59.3420 C.2   161  ASN161      0.2597
     49  O         29.1200   57.3490   60.4740 O.2   161  ASN161     -0.2718
     50  CB        27.8960   56.0160   58.2220 C.3   161  ASN161      0.1169
     51  CG        29.0310   55.3560   57.4610 C.2   161  ASN161      0.2627
     52  OD1       30.2030   55.5140   57.8100 O.2   161  ASN161     -0.2716
     53  ND2       28.6890   54.6200   56.4070 N.am  161  ASN161     -0.0877
     54  N         30.2010   58.5460   58.9170 N.am  162  HIS162     -0.1975
     55  CA        31.3150   58.8440   59.7990 C.3   162  HIS162      0.1656
     56  C         31.9940   60.1760   59.4630 C.2   162  HIS162      0.2291
     57  O         32.3770   60.4200   58.3180 O.2   162  HIS162     -0.2864
     58  CB        32.3240   57.6930   59.7210 C.3   162  HIS162      0.0771
     59  CG        33.4710   57.8150   60.6780 C.ar  162  HIS162      0.0820
     60  ND1       33.2910   57.8780   62.0440 N.ar  162  HIS162     -0.2267
     61  CD2       34.8020   57.8720   60.4630 C.ar  162  HIS162      0.1154
     62  CE1       34.4720   57.9680   62.6270 C.ar  162  HIS162      0.1986
     63  NE2       35.4060   57.9660   61.6970 N.ar  162  HIS162     -0.2212
     64  N         39.6230   57.1510   65.9690 N.3   184  TRP184     -0.1241
     65  CA        39.5210   55.7780   66.4600 C.3   184  TRP184      0.1605
     66  C         40.8120   55.3610   67.1550 C.2   184  TRP184      0.2264
     67  O         41.1260   54.1760   67.2200 O.2   184  TRP184     -0.2867
     68  CB        39.2460   54.7970   65.3150 C.3   184  TRP184      0.0550
     69  CG        37.8700   54.8810   64.7170 C.ar  184  TRP184      0.0003
     70  CD1       36.8240   55.6360   65.1690 C.ar  184  TRP184      0.0946
     71  CD2       37.3920   54.1710   63.5710 C.ar  184  TRP184      0.0152
     72  NE1       35.7220   55.4390   64.3690 N.ar  184  TRP184     -0.2442
     73  CE2       36.0450   54.5430   63.3800 C.ar  184  TRP184      0.0810
     74  CE3       37.9740   53.2540   62.6860 C.ar  184  TRP184      0.0012
     75  CZ2       35.2650   54.0310   62.3380 C.ar  184  TRP184      0.0191
     76  CZ3       37.1970   52.7440   61.6470 C.ar  184  TRP184      0.0001
     77  CH2       35.8560   53.1380   61.4840 C.ar  184  TRP184      0.0015
@<TRIPOS>BOND
     1    45    44    1
     2    35    36    1
     3    53    51   am
     4    42    43    2
     5    42    41    1
     6    40    41    1
     7    40    37   am
     8    36    37    1
     9    36    39    1
    10    44    41    1
    11    46    47    1
    12    37    38    2
    13    51    52    2
    14    51    50    1
    15    50    47    1
    16    57    56    2
    17    47    48    1
    18    54    48   am
    19    54    55    1
    20    48    49    2
    21    56    55    1
    22    58    55    1
    23    58    59    1
    24    61    59   ar
    25    61    63   ar
    26    59    60   ar
    27    77    76   ar
    28    77    75   ar
    29    76    74   ar
    30    63    62   ar
    31    60    62   ar
    32    75    73   ar
    33    74    71   ar
    34    73    71   ar
    35    73    72   ar
    36    34    33    1
    37    71    69   ar
    38    33    30    1
    39    72    70   ar
    40    69    70   ar
    41    69    68    1
    42    32    31    2
    43    31    30    1
    44    68    65    1
    45    30    29    1
    46    64    65    1
    47     8     7    2
    48    65    66    1
    49     9     7   am
    50     7     6    1
    51    66    67    2
    52    28    27    2
    53    27    26    1
    54    26    25    1
    55     6     5    1
    56     5     2    1
    57    25    21   am
    58    22    21    2
    59    21    20    1
    60     1     2    1
    61    13    12    2
    62     2     3    1
    63    17    16    2
    64    12    11    1
    65    12    19   am
    66     3     4    2
    67    20    19    1
    68    20    23    1
    69    11    10    1
    70    11    14    1
    71    16    18   am
    72    16    15    1
    73    24    23    1
    74    14    15    1
