@<TRIPOS>MOLECULE
tmp/2atvA00.pdb
 144 139 0 0 0
SMALL
GASTEIGER

@<TRIPOS>ATOM
      1  N         13.6670   21.5680   15.3130 N.3    11  ALA11      -0.1231
      2  CA        13.5490   20.4440   14.4190 C.3    11  ALA11       0.1694
      3  C         12.0840   20.0580   14.2690 C.2    11  ALA11       0.2593
      4  O         11.3510   19.9820   15.2580 O.2    11  ALA11      -0.2718
      5  CB        14.3210   19.2690   14.9920 C.3    11  ALA11       0.0304
      6  N         11.6660   19.7990   13.0360 N.am   12  GLY12      -0.1942
      7  CA        10.3240   19.3110   12.7510 C.3    12  GLY12       0.2014
      8  C          9.2870   20.3690   12.4300 C.2    12  GLY12       0.2639
      9  O          8.1200   20.0330   12.1720 O.2    12  GLY12      -0.2714
     10  N          9.6700   21.6500   12.4540 N.am   13  VAL13      -0.1963
     11  CA         8.6870   22.7030   12.2360 C.3    13  VAL13       0.1727
     12  C          8.3640   22.9110   10.7680 C.2    13  VAL13       0.2617
     13  O          7.3340   23.4940   10.4160 O.2    13  VAL13      -0.2715
     14  CB         9.1060   24.0570   12.8650 C.3    13  VAL13       0.0290
     15  CG1        9.2550   23.9180   14.3850 C.3    13  VAL13       0.0023
     16  CG2       10.3740   24.6140   12.1990 C.3    13  VAL13       0.0023
     17  N          9.2500   22.4390    9.9050 N.am   14  GLY14      -0.1940
     18  CA         9.0520   22.5660    8.4720 C.3    14  GLY14       0.2014
     19  C         10.0180   23.4820    7.7580 C.2    14  GLY14       0.2639
     20  O          9.6840   23.9580    6.6790 O.2    14  GLY14      -0.2714
     21  N         11.2260   23.6810    8.3000 N.am   15  LYS15      -0.1963
     22  CA        12.2190   24.5290    7.6290 C.3    15  LYS15       0.1728
     23  C         12.5500   24.0280    6.2190 C.2    15  LYS15       0.2617
     24  O         12.5470   24.7920    5.2530 O.2    15  LYS15      -0.2715
     25  CB        13.5000   24.6130    8.4610 C.3    15  LYS15       0.0311
     26  CG        13.3200   25.2840    9.8350 C.3    15  LYS15       0.0038
     27  CD        14.6410   25.3180   10.6260 C.3    15  LYS15       0.0206
     28  CE        15.2430   23.9600   10.9480 C.3    15  LYS15       0.1093
     29  NZ        14.3920   23.0510   11.8400 N.3    15  LYS15      -0.1314
     30  N         12.8430   22.7380    6.1080 N.am   16  SER16      -0.1936
     31  CA        13.2720   22.1690    4.8360 C.3    16  SER16       0.2055
     32  C         12.1160   22.1740    3.8450 C.2    16  SER16       0.2642
     33  O         12.3040   22.4470    2.6690 O.2    16  SER16      -0.2714
     34  CB        13.7720   20.7540    5.0190 C.3    16  SER16       0.2130
     35  OG        14.9280   20.7350    5.8120 O.3    16  SER16      -0.2179
     36  N         10.9190   21.8880    4.3390 N.am   17  ALA17      -0.1977
     37  CA         9.6980   21.9430    3.5220 C.3    17  ALA17       0.1597
     38  C          9.4320   23.3330    2.9710 C.2    17  ALA17       0.2287
     39  O          9.0420   23.4920    1.8130 O.2    17  ALA17      -0.2864
     40  CB         8.5000   21.4750    4.3400 C.3    17  ALA17       0.0319
     41  N          5.7440   20.4950   -2.7320 N.3    27  PHE27      -0.1241
     42  CA         6.2470   19.7340   -1.6100 C.3    27  PHE27       0.1605
     43  C          5.7070   18.3190   -1.7820 C.2    27  PHE27       0.2264
     44  O          4.5260   18.0230   -1.5730 O.2    27  PHE27      -0.2867
     45  CB         5.8770   20.3930   -0.2860 C.3    27  PHE27       0.0534
     46  CG         6.4590   19.7000    0.9250 C.ar   27  PHE27      -0.0203
     47  CD1        7.8140   19.3110    0.9630 C.ar   27  PHE27      -0.0042
     48  CD2        5.6480   19.4290    2.0230 C.ar   27  PHE27      -0.0042
     49  CE1        8.3350   18.6540    2.0860 C.ar   27  PHE27      -0.0003
     50  CE2        6.1570   18.7730    3.1460 C.ar   27  PHE27      -0.0003
     51  CZ         7.5080   18.3830    3.1750 C.ar   27  PHE27      -0.0000
     52  N          9.7360   13.9100    1.3120 N.3    30  GLU30      -0.1231
     53  CA        10.2460   14.1890    2.6340 C.3    30  GLU30       0.1699
     54  C         11.7540   14.3430    2.5040 C.2    30  GLU30       0.2592
     55  O         12.3550   13.8830    1.5300 O.2    30  GLU30      -0.2718
     56  CB         9.8920   13.0770    3.6260 C.3    30  GLU30       0.0402
     57  CG         8.4130   13.0150    3.9580 C.3    30  GLU30       0.1161
     58  CD         7.9820   14.1570    4.8480 C.2    30  GLU30       0.3649
     59  OE1        8.1520   14.0350    6.0770 O.co2  30  GLU30      -0.2457
     60  OE2        7.4760   15.1740    4.3230 O.co2  30  GLU30      -0.2457
     61  N         12.3530   14.9870    3.4890 N.am   31  TYR31      -0.1976
     62  CA        13.7440   15.3880    3.4200 C.3    31  TYR31       0.1639
     63  C         14.4150   15.1200    4.7470 C.2    31  TYR31       0.2290
     64  O         13.9100   15.5300    5.8030 O.2    31  TYR31      -0.2864
     65  CB        13.8190   16.8790    3.0770 C.3    31  TYR31       0.0560
     66  CG        15.2240   17.4210    2.9150 C.ar   31  TYR31      -0.0198
     67  CD1       15.9800   17.1490    1.7870 C.ar   31  TYR31      -0.0009
     68  CD2       15.8060   18.1880    3.9050 C.ar   31  TYR31      -0.0009
     69  CE1       17.2820   17.6550    1.6550 C.ar   31  TYR31       0.0417
     70  CE2       17.0770   18.7090    3.7710 C.ar   31  TYR31       0.0417
     71  CZ        17.8190   18.4430    2.6440 C.ar   31  TYR31       0.1957
     72  OH        19.0940   18.9550    2.5060 O.3    31  TYR31      -0.2866
     73  N         15.8950   14.9300    8.1430 N.3    33  PRO33      -0.2116
     74  CA        15.8800   15.8890    9.2440 C.3    33  PRO33       0.1372
     75  C         17.2430   16.3760    9.6860 C.2    33  PRO33       0.2244
     76  O         17.3270   17.4120   10.3170 O.2    33  PRO33      -0.2868
     77  CB        15.2540   15.1010   10.4070 C.3    33  PRO33       0.0268
     78  CG        14.6280   13.9310    9.8230 C.3    33  PRO33       0.0207
     79  CD        15.2940   13.6410    8.5300 C.3    33  PRO33       0.0892
     80  N         19.5570   26.2820    5.0140 N.3    56  ASP56      -0.1225
     81  CA        18.5110   25.5060    5.6680 C.3    56  ASP56       0.1805
     82  C         19.1990   24.7970    6.8330 C.2    56  ASP56       0.2598
     83  O         19.9340   23.8430    6.5950 O.2    56  ASP56      -0.2718
     84  CB        17.9710   24.4720    4.6680 C.3    56  ASP56       0.1424
     85  CG        16.9580   23.5200    5.2810 C.2    56  ASP56       0.3668
     86  OD1       16.3290   23.9540    6.2810 O.co2  56  ASP56      -0.2456
     87  OD2       16.7870   22.3570    4.7590 O.co2  56  ASP56      -0.2456
     88  N         19.0170   25.2600    8.0750 N.am   57  THR57      -0.1953
     89  CA        19.7970   24.6840    9.2040 C.3    57  THR57       0.1897
     90  C         19.1770   23.4000    9.7400 C.2    57  THR57       0.2313
     91  O         18.0000   23.1870    9.5760 O.2    57  THR57      -0.2863
     92  CB        19.9080   25.6640   10.3620 C.3    57  THR57       0.1794
     93  OG1       18.5950   25.9830   10.8310 O.3    57  THR57      -0.2208
     94  CG2       20.6170   26.9310    9.9130 C.3    57  THR57       0.0378
     95  N          4.3000   27.9520   10.5710 N.3   114  ASN114     -0.1225
     96  CA         4.0470   26.9650    9.5400 C.3   114  ASN114      0.1785
     97  C          3.0240   25.9180    9.9920 C.2   114  ASN114      0.2597
     98  O          2.6520   25.8550   11.1690 O.2   114  ASN114     -0.2718
     99  CB         5.3700   26.2990    9.1190 C.3   114  ASN114      0.1169
    100  CG         5.2260   25.3970    7.9220 C.2   114  ASN114      0.2627
    101  OD1        4.5030   25.7150    6.9630 O.2   114  ASN114     -0.2716
    102  ND2        5.8760   24.2340    7.9800 N.am  114  ASN114     -0.0877
    103  N          2.5560   25.1230    9.0280 N.am  115  LYS115     -0.1980
    104  CA         1.5630   24.0610    9.2470 C.3   115  LYS115      0.1596
    105  C          0.1610   24.6100    9.5280 C.2   115  LYS115      0.2287
    106  O         -0.6300   24.0000   10.2500 O.2   115  LYS115     -0.2864
    107  CB         2.0080   23.0850   10.3340 C.3   115  LYS115      0.0298
    108  CG         3.4190   22.5470   10.1180 C.3   115  LYS115      0.0038
    109  CD         3.6330   21.2090   10.8190 C.3   115  LYS115      0.0206
    110  CE         5.0990   20.7810   10.7740 C.3   115  LYS115      0.1093
    111  NZ         5.3900   19.6010   11.6090 N.3   115  LYS115     -0.1314
    112  N         -2.3050   24.4730    7.7080 N.3   117  ASP117     -0.1225
    113  CA        -3.3000   23.4910    7.2550 C.3   117  ASP117      0.1805
    114  C         -3.7750   22.5630    8.3710 C.2   117  ASP117      0.2597
    115  O         -4.7830   21.8920    8.2170 O.2   117  ASP117     -0.2718
    116  CB        -2.7380   22.6510    6.1060 C.3   117  ASP117      0.1424
    117  CG        -1.4830   21.8980    6.4980 C.2   117  ASP117      0.3668
    118  OD1       -0.4740   22.5480    6.7740 O.co2 117  ASP117     -0.2456
    119  OD2       -1.4940   20.6640    6.5540 O.co2 117  ASP117     -0.2456
    120  N         -3.0520   22.5160    9.4830 N.am  118  LEU118     -0.1979
    121  CA        -3.4360   21.6860   10.6270 C.3   118  LEU118      0.1596
    122  C         -4.1830   22.5010   11.6690 C.2   118  LEU118      0.2287
    123  O         -3.9460   22.3610   12.8660 O.2   118  LEU118     -0.2864
    124  CB        -2.1990   21.0530   11.2590 C.3   118  LEU118      0.0297
    125  CG        -1.3700   20.1940   10.3160 C.3   118  LEU118      0.0022
    126  CD1       -0.1720   19.5810   11.0400 C.3   118  LEU118      0.0001
    127  CD2       -2.2250   19.0980    9.6720 C.3   118  LEU118      0.0001
    128  N          1.5280   27.2650    4.9740 N.3   144  SER144     -0.1202
    129  CA         1.6430   25.8150    4.9560 C.3   144  SER144      0.2020
    130  C          2.5480   25.4320    3.8050 C.2   144  SER144      0.2619
    131  O          2.2060   25.6510    2.6520 O.2   144  SER144     -0.2717
    132  CB         0.2620   25.1780    4.7870 C.3   144  SER144      0.2103
    133  OG         0.3740   23.7830    4.5500 O.3   144  SER144     -0.2182
    134  N          3.7190   24.8820    4.1130 N.am  145  ALA145     -0.1965
    135  CA         4.5970   24.3040    3.0820 C.3   145  ALA145      0.1728
    136  C          3.8900   23.1970    2.3070 C.2   145  ALA145      0.2616
    137  O          4.1200   23.0260    1.1180 O.2   145  ALA145     -0.2715
    138  CB         5.8760   23.7580    3.7080 C.3   145  ALA145      0.0334
    139  N          3.0310   22.4490    2.9990 N.am  146  CYS146     -0.1968
    140  CA         2.2800   21.3610    2.3700 C.3   146  CYS146      0.1712
    141  C          1.2900   21.8230    1.3110 C.2   146  CYS146      0.2296
    142  O          1.3480   21.3540    0.1710 O.2   146  CYS146     -0.2864
    143  CB         1.5610   20.5250    3.4140 C.3   146  CYS146      0.0983
    144  SG         2.6370   19.2900    4.0850 S.3   146  CYS146     -0.0798
@<TRIPOS>BOND
     1    41    42    1
     2    43    42    1
     3    43    44    2
     4    42    45    1
     5    45    46    1
     6   142   141    2
     7    46    47   ar
     8    46    48   ar
     9    47    49   ar
    10   137   136    2
    11   141   140    1
    12    52    53    1
    13    55    54    2
    14    69    67   ar
    15    69    71   ar
    16    67    66   ar
    17    39    38    2
    18    48    50   ar
    19    49    51   ar
    20   136   139   am
    21   136   135    1
    22   140   139    1
    23   140   143    1
    24    54    53    1
    25    54    61   am
    26    72    71    1
    27    53    56    1
    28    71    70   ar
    29   131   130    2
    30    33    32    2
    31    66    65    1
    32    66    68   ar
    33    38    37    1
    34    65    62    1
    35   135   138    1
    36   135   134    1
    37    50    51   ar
    38   143   144    1
    39    62    61    1
    40    62    63    1
    41    37    36    1
    42    37    40    1
    43    56    57    1
    44    70    68   ar
    45   130   134   am
    46   130   129    1
    47    32    36   am
    48    32    31    1
    49    57    58    1
    50    60    58   ar
    51   133   132    1
    52    84    85    1
    53    84    81    1
    54    63    64    2
    55    87    85   ar
    56   132   129    1
    57    31    34    1
    58    31    30    1
    59    58    59   ar
    60   129   128    1
    61    80    81    1
    62    34    35    1
    63    24    23    2
    64    85    86   ar
    65    81    82    1
    66   116   117    1
    67   116   113    1
    68    30    23   am
    69    23    22    1
    70   117   119   ar
    71   117   118   ar
    72    83    82    2
    73    20    19    2
    74    82    88   am
    75   101   100    2
    76   113   112    1
    77   113   114    1
    78    22    21    1
    79    22    25    1
    80    19    21   am
    81    19    18    1
    82   100   102   am
    83   100    99    1
    84    88    89    1
    85    73    79    1
    86    73    74    1
    87   115   114    2
    88   114   120   am
    89    25    26    1
    90    18    17    1
    91    79    78    1
    92   103   104    1
    93   103    97   am
    94    99    96    1
    95    89    90    1
    96    89    92    1
    97    74    75    1
    98    74    77    1
    99   104   105    1
   100   104   107    1
   101   120   121    1
   102   105   106    2
   103    96    97    1
   104    96    95    1
   105    91    90    2
   106   127   125    1
   107    75    76    2
   108    78    77    1
   109    26    27    1
   110    17    12   am
   111    94    92    1
   112    97    98    2
   113   108   107    1
   114   108   109    1
   115   125   126    1
   116   125   124    1
   117    92    93    1
   118    13    12    2
   119    27    28    1
   120   121   124    1
   121   121   122    1
   122    12    11    1
   123   110   109    1
   124   110   111    1
   125    28    29    1
   126   122   123    2
   127     9     8    2
   128    16    14    1
   129    11    10    1
   130    11    14    1
   131     8    10   am
   132     8     7    1
   133     7     6    1
   134    14    15    1
   135     6     3   am
   136     3     2    1
   137     3     4    2
   138     2     5    1
   139     2     1    1
