@<TRIPOS>MOLECULE
tmp/2atxB00.pdb
 158 153 0 0 0
SMALL
GASTEIGER

@<TRIPOS>ATOM
      1  N         38.1290  -19.2080   51.5190 N.3    19  GLY19      -0.1210
      2  CA        39.2730  -18.5540   50.9040 C.3    19  GLY19       0.1956
      3  C         39.8810  -19.5110   49.8920 C.2    19  GLY19       0.2612
      4  O         40.0170  -20.7040   50.1690 O.2    19  GLY19      -0.2717
      5  N         40.1950  -19.0030   48.7080 N.am   20  ALA20      -0.1965
      6  CA        41.0210  -19.7210   47.7340 C.3    20  ALA20       0.1728
      7  C         40.3490  -20.8860   46.9660 C.2    20  ALA20       0.2616
      8  O         41.0610  -21.6600   46.3210 O.2    20  ALA20      -0.2715
      9  CB        42.3690  -20.2040   48.4030 C.3    20  ALA20       0.0334
     10  N         39.0210  -21.0190   47.0380 N.am   21  VAL21      -0.1963
     11  CA        38.2950  -22.0120   46.2170 C.3    21  VAL21       0.1727
     12  C         38.0040  -21.5060   44.7860 C.2    21  VAL21       0.2617
     13  O         37.5750  -22.2610   43.9180 O.2    21  VAL21      -0.2715
     14  CB        36.9770  -22.5340   46.8820 C.3    21  VAL21       0.0290
     15  CG1       37.2520  -23.0740   48.2730 C.3    21  VAL21       0.0023
     16  CG2       35.9320  -21.4590   46.9630 C.3    21  VAL21       0.0023
     17  N         38.2250  -20.2220   44.5470 N.am   22  GLY22      -0.1940
     18  CA        38.2720  -19.7240   43.1880 C.3    22  GLY22       0.2014
     19  C         36.9870  -19.0830   42.7380 C.2    22  GLY22       0.2639
     20  O         36.6000  -19.2860   41.6080 O.2    22  GLY22      -0.2714
     21  N         36.3690  -18.3200   43.6390 N.am   23  LYS23      -0.1963
     22  CA        35.0890  -17.6760   43.4540 C.3    23  LYS23       0.1728
     23  C         35.3120  -16.5360   42.5040 C.2    23  LYS23       0.2617
     24  O         34.6180  -16.3870   41.4930 O.2    23  LYS23      -0.2715
     25  CB        34.5550  -17.1250   44.7980 C.3    23  LYS23       0.0311
     26  CG        34.4640  -18.1600   45.9090 C.3    23  LYS23       0.0038
     27  CD        33.7800  -17.6690   47.1990 C.3    23  LYS23       0.0206
     28  CE        34.7390  -16.9240   48.0900 C.3    23  LYS23       0.1093
     29  NZ        35.7880  -17.8220   48.6290 N.3    23  LYS23      -0.1314
     30  N         36.2720  -15.6880   42.8480 N.am   24  THR24      -0.1937
     31  CA        36.5070  -14.5150   42.0220 C.3    24  THR24       0.2028
     32  C         36.8480  -14.9100   40.5660 C.2    24  THR24       0.2642
     33  O         36.2860  -14.3840   39.6490 O.2    24  THR24      -0.2714
     34  CB        37.5740  -13.6160   42.6210 C.3    24  THR24       0.1808
     35  OG1       37.0910  -13.0470   43.8490 O.3    24  THR24      -0.2208
     36  CG2       37.8110  -12.4340   41.6980 C.3    24  THR24       0.0379
     37  N         37.7360  -15.8720   40.3930 N.am   25  CYS25      -0.1967
     38  CA        38.1470  -16.3280   39.0800 C.3    25  CYS25       0.1712
     39  C         37.0140  -16.9930   38.3410 C.2    25  CYS25       0.2296
     40  O         36.9300  -16.9060   37.1440 O.2    25  CYS25      -0.2864
     41  CB        39.3360  -17.2880   39.2200 C.3    25  CYS25       0.0983
     42  SG        40.8580  -16.3900   39.6390 S.3    25  CYS25      -0.0798
     43  N         40.3840  -16.6560   31.5340 N.3    35  PHE35      -0.1241
     44  CA        40.9180  -16.7280   32.9040 C.3    35  PHE35       0.1605
     45  C         41.8120  -15.5110   33.1320 C.2    35  PHE35       0.2264
     46  O         42.7430  -15.2580   32.3300 O.2    35  PHE35      -0.2867
     47  CB        41.7470  -18.0150   33.0980 C.3    35  PHE35       0.0534
     48  CG        42.1660  -18.3170   34.5410 C.ar   35  PHE35      -0.0203
     49  CD1       41.2630  -18.8670   35.4510 C.ar   35  PHE35      -0.0042
     50  CD2       43.5060  -18.1290   34.9620 C.ar   35  PHE35      -0.0042
     51  CE1       41.6600  -19.1950   36.7870 C.ar   35  PHE35      -0.0003
     52  CE2       43.9430  -18.4480   36.2920 C.ar   35  PHE35      -0.0003
     53  CZ        43.0190  -18.9870   37.2110 C.ar   35  PHE35      -0.0000
     54  N         44.0740   -9.9800   39.9560 N.3    40  VAL40      -0.1231
     55  CA        42.8970  -10.6040   40.4610 C.3    40  VAL40       0.1678
     56  C         42.5920  -10.0560   41.8530 C.2    40  VAL40       0.2434
     57  O         43.2950  -10.3030   42.8150 O.2    40  VAL40      -0.2733
     58  CB        43.1170  -12.1270   40.5320 C.3    40  VAL40       0.0265
     59  CG1       41.8330  -12.8450   40.9260 C.3    40  VAL40       0.0020
     60  CG2       43.5960  -12.6310   39.1960 C.3    40  VAL40       0.0020
     61  N         41.4710   -9.4020   41.9970 N.am   41  PRO41      -0.2718
     62  CA        41.1850   -8.7350   43.2540 C.3    41  PRO41       0.1535
     63  C         40.5810   -9.7310   44.2250 C.2    41  PRO41       0.2599
     64  O         40.2090  -10.8210   43.8120 O.2    41  PRO41      -0.2715
     65  CB        40.1620   -7.6900   42.8370 C.3    41  PRO41       0.0310
     66  CG        39.4530   -8.2870   41.5810 C.3    41  PRO41       0.0237
     67  CD        40.3340   -9.3530   41.0520 C.3    41  PRO41       0.0939
     68  N         40.4550   -9.3690   45.4850 N.am   42  THR42      -0.1951
     69  CA        39.6990  -10.1930   46.4180 C.3    42  THR42       0.1897
     70  C         38.2320  -10.3760   45.9620 C.2    42  THR42       0.2313
     71  O         37.6880  -11.4920   45.8820 O.2    42  THR42      -0.2863
     72  CB        39.7060   -9.5500   47.8150 C.3    42  THR42       0.1794
     73  OG1       40.9740   -8.9460   48.0820 O.3    42  THR42      -0.2208
     74  CG2       39.5980  -10.6130   48.8870 C.3    42  THR42       0.0378
     75  N         30.1470  -11.1710   44.1370 N.3    64  ASP64      -0.1225
     76  CA        31.2400  -11.9170   44.7780 C.3    64  ASP64       0.1805
     77  C         31.3680  -11.5230   46.2480 C.2    64  ASP64       0.2598
     78  O         31.1930  -10.3690   46.6150 O.2    64  ASP64      -0.2718
     79  CB        32.5280  -11.4650   44.0570 C.3    64  ASP64       0.1424
     80  CG        33.7010  -12.3920   44.2250 C.2    64  ASP64       0.3668
     81  OD1       33.7100  -13.3500   45.0360 O.co2  64  ASP64      -0.2456
     82  OD2       34.7120  -12.1840   43.5470 O.co2  64  ASP64      -0.2456
     83  N         31.7120  -12.4630   47.1040 N.am   65  THR65      -0.1939
     84  CA        31.9760  -12.1400   48.5100 C.3    65  THR65       0.2028
     85  C         33.3040  -12.7430   48.8540 C.2    65  THR65       0.2642
     86  O         33.7790  -13.5860   48.1100 O.2    65  THR65      -0.2714
     87  CB        30.9230  -12.7490   49.4160 C.3    65  THR65       0.1808
     88  OG1       30.8580  -14.1550   49.1790 O.3    65  THR65      -0.2208
     89  CG2       29.5160  -12.2500   49.0820 C.3    65  THR65       0.0379
     90  N         33.8980  -12.3340   49.9750 N.am   66  ALA66      -0.1963
     91  CA        35.2150  -12.8320   50.3350 C.3    66  ALA66       0.1728
     92  C         35.1990  -13.6270   51.6290 C.2    66  ALA66       0.2617
     93  O         34.9280  -13.0740   52.7110 O.2    66  ALA66      -0.2715
     94  CB        36.2180  -11.7070   50.4110 C.3    66  ALA66       0.0334
     95  N         35.5090  -14.9320   51.4850 N.am   67  GLY67      -0.1940
     96  CA        35.7890  -15.8600   52.5770 C.3    67  GLY67       0.2014
     97  C         37.0760  -15.5470   53.3390 C.2    67  GLY67       0.2638
     98  O         37.5470  -16.3880   54.1490 O.2    67  GLY67      -0.2714
     99  N         37.6550  -14.3590   53.0960 N.am   68  GLN68      -0.1977
    100  CA        38.7280  -13.8140   53.9590 C.3    68  GLN68       0.1601
    101  C         38.1400  -13.3880   55.3320 C.2    68  GLN68       0.2287
    102  O         36.9490  -13.6240   55.5950 O.2    68  GLN68      -0.2864
    103  CB        39.4530  -12.6380   53.2710 C.3    68  GLN68       0.0394
    104  CG        40.8780  -12.9380   52.7410 C.3    68  GLN68       0.0908
    105  CD        41.7720  -11.6800   52.7600 C.2    68  GLN68       0.2608
    106  OE1       41.8170  -10.9740   53.7590 O.2    68  GLN68      -0.2717
    107  NE2       42.4590  -11.4020   51.6550 N.am   68  GLN68      -0.0878
    108  N         34.4890  -26.4530   42.3300 N.3   122  THR122     -0.1203
    109  CA        35.4290  -25.6640   41.5480 C.3   122  THR122      0.1994
    110  C         36.8030  -26.3650   41.3060 C.2   122  THR122      0.2617
    111  O         37.1500  -27.3600   41.9310 O.2   122  THR122     -0.2717
    112  CB        35.6790  -24.2980   42.2610 C.3   122  THR122      0.1784
    113  OG1       36.3030  -24.5130   43.5350 O.3   122  THR122     -0.2211
    114  CG2       34.3940  -23.5950   42.6000 C.3   122  THR122      0.0376
    115  N         37.5660  -25.8130   40.3750 N.am  123  GLN123     -0.1979
    116  CA        38.9080  -26.2210   40.1130 C.3   123  GLN123      0.1601
    117  C         39.0720  -27.6590   39.6520 C.2   123  GLN123      0.2287
    118  O         39.9940  -28.3460   40.0570 O.2   123  GLN123     -0.2864
    119  CB        39.7030  -25.9680   41.3540 C.3   123  GLN123      0.0394
    120  CG        39.5290  -24.5560   41.9040 C.3   123  GLN123      0.0908
    121  CD        40.6550  -24.2400   42.9400 C.2   123  GLN123      0.2608
    122  OE1       41.1000  -25.1470   43.6490 O.2   123  GLN123     -0.2717
    123  NE2       41.0870  -22.9850   43.0080 N.am  123  GLN123     -0.0878
    124  N         40.0030  -29.0140   36.8250 N.3   125  ASP125     -0.1225
    125  CA        41.2460  -29.2570   36.0990 C.3   125  ASP125      0.1805
    126  C         42.3520  -29.7550   37.0180 C.2   125  ASP125      0.2597
    127  O         43.2720  -30.4060   36.5520 O.2   125  ASP125     -0.2718
    128  CB        41.6820  -28.0000   35.3420 C.3   125  ASP125      0.1424
    129  CG        42.1090  -26.8830   36.2690 C.2   125  ASP125      0.3668
    130  OD1       41.2170  -26.2140   36.8660 O.co2 125  ASP125     -0.2456
    131  OD2       43.3410  -26.6500   36.4450 O.co2 125  ASP125     -0.2456
    132  N         42.2750  -29.4450   38.3150 N.am  126  LEU126     -0.1979
    133  CA        43.2500  -29.9250   39.3120 C.3   126  LEU126      0.1596
    134  C         42.9900  -31.3660   39.8400 C.2   126  LEU126      0.2287
    135  O         43.7170  -31.8720   40.7020 O.2   126  LEU126     -0.2864
    136  CB        43.3160  -28.9360   40.4860 C.3   126  LEU126      0.0297
    137  CG        44.4180  -27.8700   40.4340 C.3   126  LEU126      0.0022
    138  CD1       44.7120  -27.4280   39.0070 C.3   126  LEU126      0.0001
    139  CD2       44.0620  -26.6710   41.3080 C.3   126  LEU126      0.0001
    140  N         35.7350  -25.6500   35.9220 N.3   165  SER165     -0.1202
    141  CA        37.0440  -25.0160   36.0530 C.3   165  SER165      0.2020
    142  C         37.0480  -23.6170   35.3930 C.2   165  SER165      0.2619
    143  O         36.7080  -23.4280   34.1840 O.2   165  SER165     -0.2717
    144  CB        38.1210  -25.8530   35.4020 C.3   165  SER165      0.2103
    145  OG        39.1590  -25.0350   34.8690 O.3   165  SER165     -0.2182
    146  N         37.4390  -22.6340   36.1970 N.am  166  ALA166     -0.1965
    147  CA        37.6460  -21.2980   35.7220 C.3   166  ALA166      0.1728
    148  C         38.7790  -21.2500   34.6580 C.2   166  ALA166      0.2616
    149  O         38.7650  -20.4170   33.7430 O.2   166  ALA166     -0.2715
    150  CB        38.0020  -20.4250   36.9330 C.3   166  ALA166      0.0334
    151  N         39.7650  -22.1400   34.8060 N.am  167  LEU167     -0.1977
    152  CA        40.9800  -22.1250   33.9810 C.3   167  LEU167      0.1596
    153  C         40.7030  -22.3940   32.5240 C.2   167  LEU167      0.2287
    154  O         41.3470  -21.7690   31.6660 O.2   167  LEU167     -0.2864
    155  CB        42.0370  -23.1540   34.4730 C.3   167  LEU167      0.0297
    156  CG        43.4630  -23.0330   33.9000 C.3   167  LEU167      0.0022
    157  CD1       44.0990  -21.6970   34.2670 C.3   167  LEU167      0.0001
    158  CD2       44.3750  -24.1600   34.3960 C.3   167  LEU167      0.0001
@<TRIPOS>BOND
     1    43    44    1
     2   154   153    2
     3    46    45    2
     4   153   152    1
     5    44    47    1
     6    44    45    1
     7    47    48    1
     8   149   148    2
     9   156   157    1
    10   156   158    1
    11   156   155    1
    12   152   155    1
    13   152   151    1
    14   143   142    2
    15    48    50   ar
    16    48    49   ar
    17   148   151   am
    18   148   147    1
    19   145   144    1
    20    50    52   ar
    21   128   125    1
    22   128   129    1
    23   142   141    1
    24   142   146   am
    25   144   141    1
    26    49    51   ar
    27   147   146    1
    28   147   150    1
    29   140   141    1
    30   125   124    1
    31   125   126    1
    32   129   131   ar
    33   129   130   ar
    34    52    53   ar
    35   127   126    2
    36    51    53   ar
    37   126   132   am
    38    40    39    2
    39   132   133    1
    40    39    38    1
    41   138   137    1
    42    38    41    1
    43    38    37    1
    44    60    58    1
    45    41    42    1
    46   133   134    1
    47   133   136    1
    48    33    32    2
    49   117   118    2
    50   117   116    1
    51   134   135    2
    52    54    55    1
    53   116   115    1
    54   116   119    1
    55   115   110   am
    56    37    32   am
    57   137   136    1
    58   137   139    1
    59    55    58    1
    60    55    56    1
    61    58    59    1
    62    32    31    1
    63    67    66    1
    64    67    61    1
    65   110   109    1
    66   110   111    2
    67   119   120    1
    68    24    23    2
    69   109   112    1
    70   109   108    1
    71    66    65    1
    72    20    19    2
    73    36    34    1
    74    56    61   am
    75    56    57    2
    76   120   121    1
    77    61    62    1
    78    31    34    1
    79    31    30    1
    80   112   114    1
    81   112   113    1
    82    23    30   am
    83    23    22    1
    84    34    35    1
    85    19    18    1
    86    19    21   am
    87    65    62    1
    88   121   123   am
    89   121   122    2
    90    18    17    1
    91    62    63    1
    92    22    21    1
    93    22    25    1
    94    82    80   ar
    95    64    63    2
    96    13    12    2
    97    79    80    1
    98    79    76    1
    99    75    76    1
   100    63    68   am
   101    80    81   ar
   102    17    12   am
   103    76    77    1
   104    12    11    1
   105    25    26    1
   106    68    69    1
   107    71    70    2
   108    26    27    1
   109    70    69    1
   110    11    14    1
   111    11    10    1
   112    77    78    2
   113    77    83   am
   114     8     7    2
   115    69    72    1
   116    14    16    1
   117    14    15    1
   118     7    10   am
   119     7     6    1
   120    83    84    1
   121    27    28    1
   122     6     9    1
   123     6     5    1
   124    72    73    1
   125    72    74    1
   126    28    29    1
   127    86    85    2
   128    84    85    1
   129    84    87    1
   130     5     3   am
   131    85    90   am
   132    89    87    1
   133    88    87    1
   134     3     4    2
   135     3     2    1
   136    90    91    1
   137    91    94    1
   138    91    92    1
   139     2     1    1
   140    95    92   am
   141    95    96    1
   142    92    93    2
   143   107   105   am
   144    96    97    1
   145   104   105    1
   146   104   103    1
   147   105   106    2
   148    99    97   am
   149    99   100    1
   150   103   100    1
   151    97    98    2
   152   100   101    1
   153   101   102    2
