@<TRIPOS>MOLECULE
tmp/2atzA00.pdb
 194 187 0 0 0
SMALL
GASTEIGER

@<TRIPOS>ATOM
      1  N         -9.2960   24.7040   -5.8190 N.3    14  PHE14      -0.1241
      2  CA        -9.0710   25.8110   -6.7450 C.3    14  PHE14       0.1605
      3  C         -8.1420   25.3110   -7.8250 C.2    14  PHE14       0.2264
      4  O         -7.1800   24.6420   -7.5050 O.2    14  PHE14      -0.2867
      5  CB        -8.4950   27.0420   -6.0470 C.3    14  PHE14       0.0534
      6  CG        -9.4250   27.6110   -5.0150 C.ar   14  PHE14      -0.0203
      7  CD1      -10.2190   28.7330   -5.3080 C.ar   14  PHE14      -0.0042
      8  CD2       -9.5390   27.0010   -3.7610 C.ar   14  PHE14      -0.0042
      9  CE1      -11.1210   29.2720   -4.3260 C.ar   14  PHE14      -0.0003
     10  CE2      -10.4400   27.5170   -2.7770 C.ar   14  PHE14      -0.0003
     11  CZ       -11.2490   28.6280   -3.0680 C.ar   14  PHE14      -0.0000
     12  N         -5.6710   26.3540  -11.1460 N.3    16  LYS16      -0.1245
     13  CA        -5.0650   27.4700  -11.8270 C.3    16  LYS16       0.1561
     14  C         -5.4090   27.4430  -13.3100 C.2    16  LYS16       0.2260
     15  O         -5.3740   26.3780  -13.9850 O.2    16  LYS16      -0.2867
     16  CB        -3.5650   27.5460  -11.6460 C.3    16  LYS16       0.0271
     17  CG        -3.0620   28.9590  -11.9050 C.3    16  LYS16       0.0035
     18  CD        -1.6000   28.9820  -12.1140 C.3    16  LYS16       0.0206
     19  CE        -1.0390   30.1810  -11.4100 C.3    16  LYS16       0.1093
     20  NZ         0.4150   30.2790  -11.7020 N.3    16  LYS16      -0.1314
     21  N         -5.0720   40.3190   -9.4790 N.3    32  TYR32      -0.1227
     22  CA        -5.4810   39.4780  -10.5860 C.3    32  TYR32       0.1736
     23  C         -5.5200   38.0460  -10.1770 C.2    32  TYR32       0.2595
     24  O         -4.4990   37.4710   -9.8460 O.2    32  TYR32      -0.2718
     25  CB        -4.5870   39.7080  -11.8210 C.3    32  TYR32       0.0548
     26  CG        -4.8980   41.0660  -12.3700 C.ar   32  TYR32      -0.0200
     27  CD1       -5.8720   41.2210  -13.3410 C.ar   32  TYR32      -0.0009
     28  CD2       -4.3120   42.2160  -11.8240 C.ar   32  TYR32      -0.0009
     29  CE1       -6.2020   42.4810  -13.8210 C.ar   32  TYR32       0.0417
     30  CE2       -4.6450   43.4990  -12.2990 C.ar   32  TYR32       0.0417
     31  CZ        -5.5830   43.6050  -13.3030 C.ar   32  TYR32       0.1957
     32  OH        -5.9460   44.8250  -13.8040 O.3    32  TYR32      -0.2866
     33  N         -6.7090   37.4860  -10.1860 N.am   33  ASN33      -0.1960
     34  CA        -6.9340   36.1500   -9.6670 C.3    33  ASN33       0.1819
     35  C         -6.7950   35.1220  -10.7830 C.2    33  ASN33       0.2621
     36  O         -7.6390   35.0800  -11.7090 O.2    33  ASN33      -0.2715
     37  CB        -8.3410   36.0480   -9.1630 C.3    33  ASN33       0.1195
     38  CG        -8.6040   34.7880   -8.3850 C.2    33  ASN33       0.2630
     39  OD1       -7.7340   33.9530   -8.1740 O.2    33  ASN33      -0.2716
     40  ND2       -9.8140   34.6800   -7.8890 N.am   33  ASN33      -0.0877
     41  N         -5.7570   34.3010  -10.6880 N.am   34  LYS34      -0.1963
     42  CA        -5.4030   33.3060  -11.7250 C.3    34  LYS34       0.1728
     43  C         -5.9620   31.9110  -11.3990 C.2    34  LYS34       0.2616
     44  O         -5.7620   30.9480  -12.1870 O.2    34  LYS34      -0.2715
     45  CB        -3.8850   33.2530  -11.8770 C.3    34  LYS34       0.0311
     46  CG        -3.3110   34.5250  -12.4470 C.3    34  LYS34       0.0038
     47  CD        -1.7900   34.4750  -12.6020 C.3    34  LYS34       0.0206
     48  CE        -1.2450   35.8150  -13.1650 C.3    34  LYS34       0.1093
     49  NZ        -1.7520   36.9910  -12.2950 N.3    34  LYS34      -0.1314
     50  N         -6.6460   31.8010  -10.2460 N.am   35  PHE35      -0.1974
     51  CA        -7.2540   30.5340   -9.7570 C.3    35  PHE35       0.1639
     52  C         -8.7630   30.5500   -9.7920 C.2    35  PHE35       0.2290
     53  O         -9.3980   31.5000   -9.3340 O.2    35  PHE35      -0.2864
     54  CB        -6.8300   30.1720   -8.2860 C.3    35  PHE35       0.0560
     55  CG        -5.4950   29.5290   -8.1910 C.ar   35  PHE35      -0.0200
     56  CD1       -5.3840   28.1490   -8.0430 C.ar   35  PHE35      -0.0042
     57  CD2       -4.3420   30.3030   -8.2600 C.ar   35  PHE35      -0.0042
     58  CE1       -4.1300   27.5560   -7.9130 C.ar   35  PHE35      -0.0003
     59  CE2       -3.1050   29.7230   -8.1840 C.ar   35  PHE35      -0.0003
     60  CZ        -2.9860   28.3250   -8.0040 C.ar   35  PHE35      -0.0000
     61  N         -2.8930   22.0550  -11.8620 N.3    55  GLU55      -0.1245
     62  CA        -2.3460   22.8420  -10.7490 C.3    55  GLU55       0.1567
     63  C         -3.5150   23.2540   -9.8530 C.2    55  GLU55       0.2260
     64  O         -4.2940   24.1280  -10.1740 O.2    55  GLU55      -0.2867
     65  CB        -1.5120   24.0200  -11.2450 C.3    55  GLU55       0.0388
     66  CG        -1.2550   25.0920  -10.1750 C.3    55  GLU55       0.1160
     67  CD         0.0680   25.8380  -10.3230 C.2    55  GLU55       0.3649
     68  OE1        0.5760   26.2700   -9.2280 O.co2  55  GLU55      -0.2457
     69  OE2        0.5770   25.9880  -11.4970 O.co2  55  GLU55      -0.2457
     70  N         -5.0470   24.0390   -5.7770 N.3    57  ALA57      -0.1245
     71  CA        -4.8170   24.6310   -4.4640 C.3    57  ALA57       0.1562
     72  C         -5.9450   24.2280   -3.5350 C.2    57  ALA57       0.2260
     73  O         -7.0880   24.0420   -3.9870 O.2    57  ALA57      -0.2867
     74  CB        -4.7310   26.1860   -4.5530 C.3    57  ALA57       0.0290
     75  N          5.2290   30.9840    3.3340 N.3    73  ASP73      -0.1239
     76  CA         5.3860   30.6930    1.9240 C.3    73  ASP73       0.1674
     77  C          6.7300   31.3020    1.5560 C.2    73  ASP73       0.2266
     78  O          6.8290   32.4940    1.3280 O.2    73  ASP73      -0.2867
     79  CB         4.1650   31.2690    1.1200 C.3    73  ASP73       0.1410
     80  CG         4.4670   31.4550   -0.3770 C.2    73  ASP73       0.3668
     81  OD1        4.9980   30.5060   -0.9650 O.co2  73  ASP73      -0.2456
     82  OD2        4.1650   32.5320   -0.9620 O.co2  73  ASP73      -0.2456
     83  N          9.7570   32.1560   -0.6930 N.3    75  ASN75      -0.1240
     84  CA        10.0510   32.3440   -2.1080 C.3    75  ASN75       0.1653
     85  C         11.4860   32.7540   -2.3830 C.2    75  ASN75       0.2266
     86  O         11.7580   33.4910   -3.3340 O.2    75  ASN75      -0.2867
     87  CB         9.0380   33.3520   -2.6770 C.3    75  ASN75       0.1155
     88  CG         7.6020   32.9130   -2.4010 C.2    75  ASN75       0.2627
     89  OD1        6.8180   33.6410   -1.7430 O.2    75  ASN75      -0.2716
     90  ND2        7.2830   31.6710   -2.7780 N.am   75  ASN75      -0.0877
     91  N          7.5370   23.2610   -3.0460 N.3   102  THR102     -0.1203
     92  CA         6.4960   23.7690   -3.9460 C.3   102  THR102      0.1994
     93  C          6.9970   23.7630   -5.3960 C.2   102  THR102      0.2618
     94  O          8.0110   23.1250   -5.6850 O.2   102  THR102     -0.2717
     95  CB         5.9520   25.1290   -3.4600 C.3   102  THR102      0.1784
     96  OG1        7.0170   26.0850   -3.5050 O.3   102  THR102     -0.2211
     97  CG2        5.4400   24.9560   -2.0250 C.3   102  THR102      0.0376
     98  N          6.2850   24.3970   -6.3270 N.am  103  LYS103     -0.1965
     99  CA         6.6740   24.2510   -7.7470 C.3   103  LYS103      0.1728
    100  C          8.0620   24.7770   -8.1790 C.2   103  LYS103      0.2616
    101  O          8.6830   24.1840   -9.0540 O.2   103  LYS103     -0.2715
    102  CB         5.5810   24.7810   -8.7020 C.3   103  LYS103      0.0311
    103  CG         5.2050   26.2120   -8.5230 C.3   103  LYS103      0.0038
    104  CD         4.2500   26.7630   -9.6700 C.3   103  LYS103      0.0206
    105  CE         3.6290   28.0960   -9.2870 C.3   103  LYS103      0.1093
    106  NZ         4.6870   29.1880   -9.2510 N.3   103  LYS103     -0.1314
    107  N          8.5070   25.8950   -7.6170 N.am  104  THR104     -0.1951
    108  CA         9.8240   26.4850   -7.9590 C.3   104  THR104      0.1897
    109  C         10.9080   25.9350   -7.0100 C.2   104  THR104      0.2313
    110  O         10.7030   25.9500   -5.7970 O.2   104  THR104     -0.2863
    111  CB         9.7700   28.0310   -7.8790 C.3   104  THR104      0.1794
    112  OG1        8.6480   28.5010   -8.6590 O.3   104  THR104     -0.2208
    113  CG2       11.0790   28.6700   -8.3690 C.3   104  THR104      0.0378
    114  N         11.8180   26.9910   -3.2990 N.3   107  HIS107     -0.1241
    115  CA        10.6410   27.4930   -2.5870 C.3   107  HIS107      0.1621
    116  C          9.9830   26.4190   -1.7060 C.2   107  HIS107      0.2264
    117  O         10.0690   25.2150   -1.9740 O.2   107  HIS107     -0.2867
    118  CB         9.6230   28.1500   -3.5390 C.3   107  HIS107      0.0745
    119  CG        10.1580   29.3250   -4.3300 C.ar  107  HIS107      0.0817
    120  ND1        9.3210   30.2220   -4.9660 N.ar  107  HIS107     -0.2268
    121  CD2       11.4200   29.7810   -4.5430 C.ar  107  HIS107      0.1154
    122  CE1       10.0450   31.1560   -5.5580 C.ar  107  HIS107      0.1986
    123  NE2       11.3210   30.9000   -5.3390 N.ar  107  HIS107     -0.2212
    124  N          6.5270   25.5590    1.2280 N.3   109  HIS109     -0.1241
    125  CA         5.5170   25.9630    2.2180 C.3   109  HIS109      0.1621
    126  C          5.7940   25.2650    3.5420 C.2   109  HIS109      0.2264
    127  O          5.8570   24.0280    3.6250 O.2   109  HIS109     -0.2867
    128  CB         4.0860   25.6530    1.7870 C.3   109  HIS109      0.0745
    129  CG         3.6370   26.3930    0.5630 C.ar  109  HIS109      0.0817
    130  ND1        2.6320   25.9180   -0.2520 N.ar  109  HIS109     -0.2268
    131  CD2        4.0480   27.5620    0.0150 C.ar  109  HIS109      0.1154
    132  CE1        2.4370   26.7640   -1.2480 C.ar  109  HIS109      0.1986
    133  NE2        3.2840   27.7720   -1.1020 N.ar  109  HIS109     -0.2212
    134  N          6.0250   35.0210    2.2480 N.3   141  LYS141     -0.1245
    135  CA         4.7400   35.6350    2.5540 C.3   141  LYS141      0.1561
    136  C          4.2200   34.7580    3.6750 C.2   141  LYS141      0.2260
    137  O          4.7010   33.6440    3.8810 O.2   141  LYS141     -0.2867
    138  CB         3.7690   35.5460    1.3340 C.3   141  LYS141      0.0271
    139  CG         4.0980   36.4880    0.1730 C.3   141  LYS141      0.0035
    140  CD         3.0020   36.4780   -0.9320 C.3   141  LYS141      0.0206
    141  CE         2.5970   35.1000   -1.3920 C.3   141  LYS141      0.1093
    142  NZ         3.3040   34.7600   -2.6650 N.3   141  LYS141     -0.1314
    143  N          0.5770   33.0640    5.5890 N.3   143  PHE143     -0.1241
    144  CA        -0.8210   32.7080    5.4270 C.3   143  PHE143      0.1605
    145  C         -1.3760   32.1810    6.7460 C.2   143  PHE143      0.2264
    146  O         -0.6650   31.4790    7.4900 O.2   143  PHE143     -0.2867
    147  CB        -0.9740   31.6050    4.3550 C.3   143  PHE143      0.0534
    148  CG        -0.6800   32.0640    2.9100 C.ar  143  PHE143     -0.0203
    149  CD1        0.6530   32.1430    2.4140 C.ar  143  PHE143     -0.0042
    150  CD2       -1.7380   32.3590    2.0190 C.ar  143  PHE143     -0.0042
    151  CE1        0.8970   32.5140    1.0920 C.ar  143  PHE143     -0.0003
    152  CE2       -1.4800   32.7260    0.7060 C.ar  143  PHE143     -0.0003
    153  CZ        -0.1640   32.7950    0.2380 C.ar  143  PHE143     -0.0000
    154  N        -10.1520   34.6330   -0.9460 N.3   151  GLU151     -0.1231
    155  CA        -9.8880   33.5200   -1.8550 C.3   151  GLU151      0.1699
    156  C         -8.4230   33.3790   -2.3280 C.2   151  GLU151      0.2592
    157  O         -8.1200   32.4700   -3.0630 O.2   151  GLU151     -0.2718
    158  CB       -10.8760   33.5730   -3.0330 C.3   151  GLU151      0.0402
    159  CG       -10.7260   34.8080   -3.9820 C.3   151  GLU151      0.1161
    160  CD       -11.5350   36.0650   -3.5510 C.2   151  GLU151      0.3649
    161  OE1      -11.9470   36.1860   -2.3500 O.co2 151  GLU151     -0.2457
    162  OE2      -11.7450   36.9380   -4.4490 O.co2 151  GLU151     -0.2457
    163  N         -7.5350   34.3000   -1.9410 N.am  152  PHE152     -0.1976
    164  CA        -6.1040   34.1780   -2.2340 C.3   152  PHE152      0.1639
    165  C         -5.4100   33.4990   -1.0500 C.2   152  PHE152      0.2290
    166  O         -4.2130   33.1260   -1.1150 O.2   152  PHE152     -0.2864
    167  CB        -5.4510   35.5510   -2.4440 C.3   152  PHE152      0.0560
    168  CG        -5.6690   36.1380   -3.8200 C.ar  152  PHE152     -0.0200
    169  CD1       -6.9540   36.5150   -4.2470 C.ar  152  PHE152     -0.0042
    170  CD2       -4.5740   36.3590   -4.6730 C.ar  152  PHE152     -0.0042
    171  CE1       -7.1630   37.0770   -5.5440 C.ar  152  PHE152     -0.0003
    172  CE2       -4.7850   36.9510   -5.9640 C.ar  152  PHE152     -0.0003
    173  CZ        -6.0850   37.3050   -6.3810 C.ar  152  PHE152     -0.0000
    174  N         -5.2290   30.4870   -0.2910 N.3   154  ILE154     -0.1231
    175  CA        -5.2290   29.1200   -0.7740 C.3   154  ILE154      0.1692
    176  C         -3.7620   28.7320   -1.0580 C.2   154  ILE154      0.2592
    177  O         -2.9140   29.6130   -1.3060 O.2   154  ILE154     -0.2718
    178  CB        -6.1050   28.9890   -2.0080 C.3   154  ILE154      0.0266
    179  CG1       -5.5260   29.7640   -3.2250 C.3   154  ILE154      0.0019
    180  CG2       -7.5160   29.4580   -1.7100 C.3   154  ILE154      0.0020
    181  CD1       -6.3150   29.4960   -4.5560 C.3   154  ILE154      0.0001
    182  N         -3.4730   27.4360   -1.0010 N.am  155  LEU155     -0.1966
    183  CA        -2.1260   26.9140   -1.2630 C.3   155  LEU155      0.1728
    184  C         -2.1180   25.7650   -2.2470 C.2   155  LEU155      0.2616
    185  O         -2.8140   24.7650   -2.0500 O.2   155  LEU155     -0.2715
    186  CB        -1.4400   26.4590    0.0580 C.3   155  LEU155      0.0311
    187  CG        -1.3530   27.5980    1.0920 C.3   155  LEU155      0.0022
    188  CD1       -1.2870   27.0520    2.5630 C.3   155  LEU155      0.0001
    189  CD2       -0.1820   28.5590    0.7790 C.3   155  LEU155      0.0001
    190  N         -1.3050   25.9200   -3.2990 N.am  156  ALA156     -0.1977
    191  CA        -1.0150   24.8470   -4.2210 C.3   156  ALA156      0.1597
    192  C         -0.5630   23.6510   -3.4140 C.2   156  ALA156      0.2287
    193  O          0.2570   23.7710   -2.4430 O.2   156  ALA156     -0.2864
    194  CB         0.0660   25.2720   -5.2330 C.3   156  ALA156      0.0319
@<TRIPOS>BOND
     1    15    14    2
     2    29    27   ar
     3    29    31   ar
     4    32    31    1
     5    27    26   ar
     6    14    13    1
     7    31    30   ar
     8    48    47    1
     9    48    49    1
    10    47    46    1
    11    46    45    1
    12    26    28   ar
    13    26    25    1
    14    30    28   ar
    15    44    43    2
    16    18    17    1
    17    18    19    1
    18    17    16    1
    19    45    42    1
    20    61    62    1
    21    13    16    1
    22    13    12    1
    23    25    22    1
    24    42    43    1
    25    42    41    1
    26    36    35    2
    27    20    19    1
    28    69    67   ar
    29    43    50   am
    30    65    62    1
    31    65    66    1
    32    35    41   am
    33    35    34    1
    34    62    63    1
    35    22    23    1
    36    22    21    1
    37    67    66    1
    38    67    68   ar
    39    50    51    1
    40    33    23   am
    41    33    34    1
    42    23    24    2
    43    64    63    2
    44    52    51    1
    45    52    53    2
    46    51    54    1
    47   104   105    1
    48   104   103    1
    49    34    37    1
    50   105   106    1
    51    37    38    1
    52   101   100    2
    53   102   103    1
    54   102    99    1
    55   112   111    1
    56    38    39    2
    57    38    40   am
    58   113   111    1
    59    54    55    1
    60    57    55   ar
    61    57    59   ar
    62    55    56   ar
    63    59    60   ar
    64   100    99    1
    65   100   107   am
    66    56    58   ar
    67    60    58   ar
    68   108   111    1
    69   108   107    1
    70   108   109    1
    71     3     4    2
    72     3     2    1
    73    99    98    1
    74   109   110    2
    75     2     5    1
    76     2     1    1
    77   173   172   ar
    78   173   171   ar
    79    98    93   am
    80     5     6    1
    81   172   170   ar
    82    70    71    1
    83    94    93    2
    84   122   123   ar
    85   122   120   ar
    86   171   169   ar
    87    93    92    1
    88   123   121   ar
    89     7     6   ar
    90     7     9   ar
    91   194   191    1
    92     6     8   ar
    93   120   119   ar
    94   170   168   ar
    95   181   179    1
    96    74    71    1
    97   121   119   ar
    98    71    72    1
    99   162   160   ar
   100   119   118    1
   101     9    11   ar
   102   169   168   ar
   103   191   192    1
   104   191   190    1
   105    73    72    2
   106   159   160    1
   107   159   158    1
   108    92    95    1
   109    92    91    1
   110   168   167    1
   111     8    10   ar
   112   160   161   ar
   113   118   115    1
   114    96    95    1
   115    95    97    1
   116   192   193    2
   117    86    85    2
   118   190   184   am
   119   114   115    1
   120   179   178    1
   121    11    10   ar
   122   157   156    2
   123   158   155    1
   124    90    88   am
   125    87    88    1
   126    87    84    1
   127   142   141    1
   128   115   116    1
   129   167   164    1
   130    88    89    2
   131    85    84    1
   132   156   163   am
   133   156   155    1
   134   184   185    2
   135   184   183    1
   136   164   163    1
   137   164   165    1
   138    84    83    1
   139   178   180    1
   140   178   175    1
   141   117   116    2
   142   155   154    1
   143   141   140    1
   144   177   176    2
   145   183   182    1
   146   183   186    1
   147   132   133   ar
   148   132   130   ar
   149   166   165    2
   150   133   131   ar
   151   176   182   am
   152   176   175    1
   153    81    80   ar
   154    82    80   ar
   155   140   139    1
   156   175   174    1
   157    80    79    1
   158   130   129   ar
   159   131   129   ar
   160   186   187    1
   161   139   138    1
   162   153   152   ar
   163   153   151   ar
   164   129   128    1
   165   152   150   ar
   166   189   187    1
   167   151   149   ar
   168   187   188    1
   169    79    76    1
   170   124   125    1
   171    78    77    2
   172   138   135    1
   173    77    76    1
   174   128   125    1
   175    76    75    1
   176   150   148   ar
   177   125   126    1
   178   134   135    1
   179   149   148   ar
   180   135   136    1
   181   148   147    1
   182   126   127    2
   183   136   137    2
   184   147   144    1
   185   144   143    1
   186   144   145    1
   187   145   146    2
