@<TRIPOS>MOLECULE
tmp/2au6A00.pdb
 165 155 0 0 0
SMALL
GASTEIGER

@<TRIPOS>ATOM
      1  N         54.0160   85.5240   21.0330 N.3    20  GLU20      -0.1245
      2  CA        52.7270   86.1750   21.1600 C.3    20  GLU20       0.1567
      3  C         52.3790   86.5500   22.5760 C.2    20  GLU20       0.2260
      4  O         51.7300   87.5850   22.7990 O.2    20  GLU20      -0.2867
      5  CB        51.6210   85.2610   20.6240 C.3    20  GLU20       0.0388
      6  CG        51.7490   85.0700   19.1150 C.3    20  GLU20       0.1160
      7  CD        50.9100   83.9650   18.5500 C.2    20  GLU20       0.3649
      8  OE1       50.9010   82.8870   19.2080 O.co2  20  GLU20      -0.2457
      9  OE2       50.3110   84.1480   17.4370 O.co2  20  GLU20      -0.2457
     10  N         45.1060   86.4380   25.4990 N.3    29  LYS29      -0.1245
     11  CA        45.5620   85.4990   24.5110 C.3    29  LYS29       0.1561
     12  C         45.7160   86.2780   23.2160 C.2    29  LYS29       0.2260
     13  O         44.7710   86.4070   22.4360 O.2    29  LYS29      -0.2867
     14  CB        44.5360   84.3440   24.3610 C.3    29  LYS29       0.0271
     15  CG        45.1840   83.0360   24.1210 C.3    29  LYS29       0.0035
     16  CD        45.5820   82.8730   22.7270 C.3    29  LYS29       0.0206
     17  CE        46.2080   81.4560   22.4800 C.3    29  LYS29       0.1093
     18  NZ        46.7360   81.3320   21.1110 N.3    29  LYS29      -0.1314
     19  N         47.2050   86.7040   19.2900 N.3    31  GLU31      -0.1245
     20  CA        47.5990   85.9050   18.1610 C.3    31  GLU31       0.1567
     21  C         47.9720   86.8470   17.0320 C.2    31  GLU31       0.2260
     22  O         47.2380   87.7960   16.7490 O.2    31  GLU31      -0.2867
     23  CB        46.4570   84.9700   17.7050 C.3    31  GLU31       0.0388
     24  CG        46.0890   83.9310   18.7420 C.3    31  GLU31       0.1160
     25  CD        45.1510   82.8380   18.2790 C.2    31  GLU31       0.3649
     26  OE1       44.3840   83.0450   17.3350 O.co2  31  GLU31      -0.2457
     27  OE2       45.1370   81.7460   18.7930 O.co2  31  GLU31      -0.2457
     28  N         42.9470   87.4760   20.7270 N.3    42  ASP42      -0.1225
     29  CA        42.0350   86.3790   20.3870 C.3    42  ASP42       0.1805
     30  C         40.9640   86.1800   21.4480 C.2    42  ASP42       0.2597
     31  O         39.7820   85.9500   21.1460 O.2    42  ASP42      -0.2718
     32  CB        42.8000   85.0310   20.2370 C.3    42  ASP42       0.1424
     33  CG        41.8520   83.9060   19.8130 C.2    42  ASP42       0.3668
     34  OD1       41.2470   83.8100   18.7350 O.co2  42  ASP42      -0.2456
     35  OD2       41.7210   82.9810   20.5950 O.co2  42  ASP42      -0.2456
     36  N         41.3940   86.3040   22.7190 N.am   43  ARG43      -0.1979
     37  CA        40.5420   86.0660   23.8490 C.3    43  ARG43       0.1597
     38  C         41.0900   86.7380   25.0890 C.2    43  ARG43       0.2287
     39  O         42.2960   86.8030   25.2260 O.2    43  ARG43      -0.2864
     40  CB        40.4860   84.5130   24.1180 C.3    43  ARG43       0.0334
     41  CG        39.3420   83.9630   24.8740 C.3    43  ARG43       0.0492
     42  CD        39.1770   82.5640   24.3280 C.3    43  ARG43       0.2205
     43  NE        40.2590   81.6160   24.4840 N.pl3  43  ARG43      -0.0865
     44  CZ        41.2400   80.9270   23.9840 C.cat  43  ARG43       0.5346
     45  NH1       41.5050   80.9900   22.6760 N.pl3  43  ARG43       0.1354
     46  NH2       42.0450   80.1070   24.7050 N.pl3  43  ARG43       0.1354
     47  N         50.2620   81.6630   31.1720 N.3    51  TYR51      -0.1241
     48  CA        51.1190   80.8020   30.3920 C.3    51  TYR51       0.1605
     49  C         52.4410   80.5860   31.2070 C.2    51  TYR51       0.2264
     50  O         53.0560   81.5830   31.6550 O.2    51  TYR51      -0.2867
     51  CB        51.4560   81.3220   29.0140 C.3    51  TYR51       0.0534
     52  CG        50.3150   81.0850   28.0490 C.ar   51  TYR51      -0.0201
     53  CD1       49.1750   81.8630   28.0220 C.ar   51  TYR51      -0.0009
     54  CD2       50.3930   79.9960   27.1680 C.ar   51  TYR51      -0.0009
     55  CE1       48.1320   81.6290   27.1320 C.ar   51  TYR51       0.0417
     56  CE2       49.3630   79.7560   26.2780 C.ar   51  TYR51       0.0417
     57  CZ        48.2490   80.5540   26.2770 C.ar   51  TYR51       0.1957
     58  OH        47.1840   80.3820   25.4280 O.3    51  TYR51      -0.2866
     59  N         55.1060   82.1700   24.9940 N.3    55  TYR55      -0.1241
     60  CA        54.3230   81.3330   24.0980 C.3    55  TYR55       0.1605
     61  C         54.2280   81.9770   22.7130 C.2    55  TYR55       0.2264
     62  O         53.9440   83.1640   22.6140 O.2    55  TYR55      -0.2867
     63  CB        52.9450   81.1220   24.6790 C.3    55  TYR55       0.0534
     64  CG        52.0300   80.1990   23.8960 C.ar   55  TYR55      -0.0201
     65  CD1       52.1890   78.8280   23.9900 C.ar   55  TYR55      -0.0009
     66  CD2       51.0240   80.7190   23.0790 C.ar   55  TYR55      -0.0009
     67  CE1       51.3650   77.9840   23.2740 C.ar   55  TYR55       0.0417
     68  CE2       50.1890   79.8790   22.3840 C.ar   55  TYR55       0.0417
     69  CZ        50.3420   78.5110   22.4850 C.ar   55  TYR55       0.1957
     70  OH        49.5330   77.5980   21.8180 O.3    55  TYR55      -0.2866
     71  N         45.4700   72.1730   13.7180 N.3    65  ASP65      -0.1239
     72  CA        44.4940   73.1160   14.1810 C.3    65  ASP65       0.1674
     73  C         44.3630   74.3250   13.2330 C.2    65  ASP65       0.2266
     74  O         43.5700   75.2300   13.5220 O.2    65  ASP65      -0.2867
     75  CB        44.7550   73.6040   15.6030 C.3    65  ASP65       0.1410
     76  CG        45.9220   74.5740   15.7370 C.2    65  ASP65       0.3668
     77  OD1       45.9670   75.2320   16.8170 O.co2  65  ASP65      -0.2456
     78  OD2       46.7770   74.7120   14.8250 O.co2  65  ASP65      -0.2456
     79  N         46.7120   76.6570   12.4050 N.3    67  ASP67      -0.1239
     80  CA        47.6380   77.7150   12.7710 C.3    67  ASP67       0.1674
     81  C         49.0510   77.1860   12.8360 C.2    67  ASP67       0.2266
     82  O         49.2580   76.0000   12.9730 O.2    67  ASP67      -0.2867
     83  CB        47.3160   78.0910   14.2400 C.3    67  ASP67       0.1410
     84  CG        45.9760   78.5800   14.7320 C.2    67  ASP67       0.3668
     85  OD1       45.2140   79.0410   13.8360 O.co2  67  ASP67      -0.2456
     86  OD2       45.6630   78.5980   15.9860 O.co2  67  ASP67      -0.2456
     87  N         52.8270   75.5320   17.6820 N.3    70  ASP70      -0.1239
     88  CA        52.9680   76.2680   18.9150 C.3    70  ASP70       0.1674
     89  C         54.2440   75.9120   19.6690 C.2    70  ASP70       0.2266
     90  O         54.6590   74.7440   19.7090 O.2    70  ASP70      -0.2867
     91  CB        51.7770   76.0340   19.8100 C.3    70  ASP70       0.1410
     92  CG        50.4900   76.4500   19.1370 C.2    70  ASP70       0.3668
     93  OD1       50.4990   77.5410   18.5910 O.co2  70  ASP70      -0.2456
     94  OD2       49.4850   75.6930   19.2430 O.co2  70  ASP70      -0.2456
     95  N         43.1600   69.8710   20.7350 N.3    97  ASP97      -0.1225
     96  CA        42.0930   70.6960   21.3160 C.3    97  ASP97       0.1805
     97  C         40.9600   70.7300   20.3260 C.2    97  ASP97       0.2598
     98  O         40.9190   69.9780   19.3260 O.2    97  ASP97      -0.2718
     99  CB        42.5900   72.0960   21.7510 C.3    97  ASP97       0.1424
    100  CG        42.8960   73.1400   20.7170 C.2    97  ASP97       0.3668
    101  OD1       42.7060   72.9450   19.5130 O.co2  97  ASP97      -0.2456
    102  OD2       43.3330   74.2310   21.1760 O.co2  97  ASP97      -0.2456
    103  N         39.9530   71.5960   20.5670 N.am   98  GLU98      -0.1965
    104  CA        38.7270   71.5690   19.7680 C.3    98  GLU98       0.1733
    105  C         39.0120   71.8660   18.2910 C.2    98  GLU98       0.2616
    106  O         38.1750   71.5410   17.4370 O.2    98  GLU98      -0.2715
    107  CB        37.7140   72.5210   20.3780 C.3    98  GLU98       0.0429
    108  CG        37.9380   74.0020   20.1300 C.3    98  GLU98       0.1163
    109  CD        39.1360   74.5500   20.8460 C.2    98  GLU98       0.3649
    110  OE1       39.4930   74.0570   21.9420 O.co2  98  GLU98      -0.2457
    111  OE2       39.6800   75.5570   20.2950 O.co2  98  GLU98      -0.2457
    112  N         40.1510   72.5130   17.9880 N.am   99  ALA99      -0.1977
    113  CA        40.4910   72.8980   16.6090 C.3    99  ALA99       0.1597
    114  C         41.3110   71.8090   15.9110 C.2    99  ALA99       0.2287
    115  O         41.4530   71.9560   14.6750 O.2    99  ALA99      -0.2864
    116  CB        41.1830   74.2520   16.6190 C.3    99  ALA99       0.0319
    117  N         47.3380   69.5550   18.1820 N.3   102  ASP102     -0.1239
    118  CA        47.8110   70.8640   18.5610 C.3   102  ASP102      0.1674
    119  C         48.9490   70.7620   19.5340 C.2   102  ASP102      0.2266
    120  O         48.8950   71.2950   20.6510 O.2   102  ASP102     -0.2867
    121  CB        46.6010   71.6200   19.1870 C.3   102  ASP102      0.1410
    122  CG        46.8480   73.0990   19.3190 C.2   102  ASP102      0.3668
    123  OD1       47.6670   73.6790   18.5870 O.co2 102  ASP102     -0.2456
    124  OD2       46.1710   73.6860   20.2150 O.co2 102  ASP102     -0.2456
    125  N         52.4130   71.1220   21.6430 N.3   104  LYS104     -0.1245
    126  CA        53.0960   72.2620   22.2350 C.3   104  LYS104      0.1561
    127  C         54.5960   71.8960   22.3290 C.2   104  LYS104      0.2260
    128  O         55.0350   71.1410   23.1910 O.2   104  LYS104     -0.2867
    129  CB        52.5410   72.6060   23.6100 C.3   104  LYS104      0.0271
    130  CG        51.0570   72.8180   23.6150 C.3   104  LYS104      0.0035
    131  CD        50.6440   74.0460   22.8330 C.3   104  LYS104      0.0206
    132  CE        49.1740   74.3210   22.8950 C.3   104  LYS104      0.1093
    133  NZ        48.5810   74.4890   21.5980 N.3   104  LYS104     -0.1314
    134  N         47.4650   73.5670   30.1740 N.3   138  PHE138     -0.1241
    135  CA        46.7270   73.2600   28.9570 C.3   138  PHE138      0.1605
    136  C         45.4860   72.3930   29.2960 C.2   138  PHE138      0.2264
    137  O         44.4610   72.5460   28.6510 O.2   138  PHE138     -0.2867
    138  CB        47.6190   72.6020   27.9000 C.3   138  PHE138      0.0534
    139  CG        48.4990   73.6990   27.2960 C.ar  138  PHE138     -0.0203
    140  CD1       47.9320   74.6620   26.4680 C.ar  138  PHE138     -0.0042
    141  CD2       49.8220   73.7830   27.6110 C.ar  138  PHE138     -0.0042
    142  CE1       48.6960   75.7040   25.9690 C.ar  138  PHE138     -0.0003
    143  CE2       50.5910   74.8320   27.1100 C.ar  138  PHE138     -0.0003
    144  CZ        50.0400   75.8100   26.2960 C.ar  138  PHE138     -0.0000
    145  N         43.0750   75.5740   31.2250 N.3   141  TYR141     -0.1227
    146  CA        42.8960   76.9990   30.9600 C.3   141  TYR141      0.1736
    147  C         41.6090   77.2870   30.1850 C.2   141  TYR141      0.2595
    148  O         41.1210   78.4090   30.2520 O.2   141  TYR141     -0.2718
    149  CB        44.1550   77.5120   30.2730 C.3   141  TYR141      0.0548
    150  CG        44.3030   77.0720   28.8330 C.ar  141  TYR141     -0.0200
    151  CD1       44.2920   75.8070   28.2800 C.ar  141  TYR141     -0.0009
    152  CD2       44.4830   78.0940   27.9100 C.ar  141  TYR141     -0.0009
    153  CE1       44.4210   75.4510   26.9770 C.ar  141  TYR141      0.0417
    154  CE2       44.6300   77.8050   26.5750 C.ar  141  TYR141      0.0417
    155  CZ        44.6050   76.5050   26.1070 C.ar  141  TYR141      0.1957
    156  OH        44.7530   76.2640   24.7920 O.3   141  TYR141     -0.2866
    157  N         41.0640   76.2640   29.5020 N.am  142  LYS142     -0.1980
    158  CA        39.8040   76.4080   28.7640 C.3   142  LYS142      0.1596
    159  C         38.5990   75.9030   29.5690 C.2   142  LYS142      0.2287
    160  O         37.4860   75.7960   28.9760 O.2   142  LYS142     -0.2864
    161  CB        39.9100   75.6520   27.4490 C.3   142  LYS142      0.0298
    162  CG        40.9140   76.3060   26.5110 C.3   142  LYS142      0.0038
    163  CD        41.1170   75.3690   25.3030 C.3   142  LYS142      0.0206
    164  CE        41.5340   76.2140   24.1940 C.3   142  LYS142      0.1093
    165  NZ        41.5970   75.5490   22.9310 N.3   142  LYS142     -0.1314
@<TRIPOS>BOND
     1    79    80    1
     2    80    81    1
     3    80    83    1
     4    81    82    2
     5    73    74    2
     6    73    72    1
     7    71    72    1
     8    85    84   ar
     9    72    75    1
    10    83    84    1
    11   115   114    2
    12    84    86   ar
    13    78    76   ar
    14    75    76    1
    15    76    77   ar
    16   114   113    1
    17   113   116    1
    18   113   112    1
    19    22    21    2
    20    21    20    1
    21    26    25   ar
    22     9     7   ar
    23   106   105    2
    24    87    88    1
    25    23    20    1
    26    23    24    1
    27   112   105   am
    28    20    19    1
    29   117   118    1
    30    25    24    1
    31    25    27   ar
    32   105   104    1
    33     7     6    1
    34     7     8   ar
    35   118   121    1
    36   118   119    1
    37   123   122   ar
    38    93    92   ar
    39    34    33   ar
    40    88    89    1
    41    88    91    1
    42     6     5    1
    43    92    94   ar
    44    92    91    1
    45   121   122    1
    46   122   124   ar
    47    98    97    2
    48   101   100   ar
    49   119   120    2
    50    89    90    2
    51   104   107    1
    52   104   103    1
    53    33    32    1
    54    33    35   ar
    55   108   107    1
    56   108   109    1
    57    32    29    1
    58   111   109   ar
    59    97   103   am
    60    97    96    1
    61    29    28    1
    62    29    30    1
    63     5     2    1
    64   100   102   ar
    65   100    99    1
    66    95    96    1
    67   109   110   ar
    68     1     2    1
    69    18    17    1
    70    31    30    2
    71     2     3    1
    72    96    99    1
    73    30    36   am
    74   133   132    1
    75   125   126    1
    76    70    69    1
    77   126   127    1
    78   126   129    1
    79   127   128    2
    80    68    69   ar
    81    68    66   ar
    82    13    12    2
    83    17    16    1
    84    69    67   ar
    85     3     4    2
    86    62    61    2
    87    45    44    1
    88    61    60    1
    89    36    37    1
    90    16    15    1
    91   131   132    1
    92   131   130    1
    93   165   164    1
    94    66    64   ar
    95    12    11    1
    96    67    65   ar
    97   129   130    1
    98    37    40    1
    99    37    38    1
   100    64    65   ar
   101    64    63    1
   102    44    43    2
   103    44    46    1
   104    60    63    1
   105    60    59    1
   106    40    41    1
   107    15    14    1
   108   164   163    1
   109    42    43    1
   110    42    41    1
   111    14    11    1
   112    11    10    1
   113   156   155    1
   114    38    39    2
   115   163   162    1
   116    58    57    1
   117   142   144   ar
   118   142   140   ar
   119   155   154   ar
   120   155   153   ar
   121    57    56   ar
   122    57    55   ar
   123    56    54   ar
   124   144   143   ar
   125   140   139   ar
   126   162   161    1
   127   154   152   ar
   128   153   151   ar
   129   143   141   ar
   130    55    53   ar
   131    54    52   ar
   132   139   141   ar
   133   139   138    1
   134   161   158    1
   135   138   135    1
   136   152   150   ar
   137    53    52   ar
   138    52    51    1
   139   151   150   ar
   140   137   136    2
   141   158   157    1
   142   158   159    1
   143   150   149    1
   144   135   136    1
   145   135   134    1
   146   160   159    2
   147    51    48    1
   148   157   147   am
   149   147   148    2
   150   147   146    1
   151   149   146    1
   152    48    47    1
   153    48    49    1
   154   146   145    1
   155    49    50    2
