@<TRIPOS>MOLECULE
tmp/2auxA00.pdb
 137 134 0 0 0
SMALL
GASTEIGER

@<TRIPOS>ATOM
      1  N         24.1760   60.5420   78.8290 N.3    17  GLN17      -0.1245
      2  CA        22.9080   59.8590   79.0690 C.3    17  GLN17       0.1566
      3  C         22.9550   58.3750   78.7150 C.2    17  GLN17       0.2260
      4  O         22.1370   57.5960   79.1870 O.2    17  GLN17      -0.2867
      5  CB        21.7920   60.5120   78.2380 C.3    17  GLN17       0.0367
      6  CG        21.7120   61.9940   78.5360 C.3    17  GLN17       0.0905
      7  CD        20.7500   62.6810   77.5640 C.2    17  GLN17       0.2608
      8  OE1       20.6850   63.9050   77.5110 O.2    17  GLN17      -0.2717
      9  NE2       20.0000   61.8960   76.8050 N.am   17  GLN17      -0.0878
     10  N         16.7250   58.4390   77.2700 N.3    21  GLY21      -0.1225
     11  CA        16.2790   59.8040   77.0380 C.3    21  GLY21       0.1811
     12  C         16.0500   60.5520   78.3430 C.2    21  GLY21       0.2280
     13  O         14.9520   61.0600   78.6080 O.2    21  GLY21      -0.2866
     14  N         17.5180   63.4160   79.3660 N.3    23  CYS23      -0.1221
     15  CA        18.0060   64.7950   79.2740 C.3    23  CYS23       0.1808
     16  C         17.5610   65.6230   80.4660 C.2    23  CYS23       0.2601
     17  O         18.3720   66.2550   81.1380 O.2    23  CYS23      -0.2717
     18  CB        17.5060   65.4700   77.9820 C.3    23  CYS23       0.0970
     19  SG        16.0790   65.2730   77.8060 S.3    23  CYS23      -0.0800
     20  N         16.2610   65.5960   80.7310 N.am   24  TRP24      -0.1976
     21  CA        15.6900   66.3670   81.8220 C.3    24  TRP24       0.1640
     22  C         16.2910   66.0570   83.1870 C.2    24  TRP24       0.2290
     23  O         16.3980   66.9430   84.0330 O.2    24  TRP24      -0.2864
     24  CB        14.1690   66.1670   81.8770 C.3    24  TRP24       0.0576
     25  CG        13.8510   64.7380   82.1930 C.ar   24  TRP24       0.0006
     26  CD1       13.7090   63.7150   81.3050 C.ar   24  TRP24       0.0946
     27  CD2       13.6710   64.1690   83.4960 C.ar   24  TRP24       0.0152
     28  NE1       13.4500   62.5430   81.9700 N.ar   24  TRP24      -0.2442
     29  CE2       13.4250   62.7930   83.3180 C.ar   24  TRP24       0.0810
     30  CE3       13.6970   64.6890   84.7960 C.ar   24  TRP24       0.0012
     31  CZ2       13.2080   61.9260   84.3930 C.ar   24  TRP24       0.0191
     32  CZ3       13.4810   63.8290   85.8650 C.ar   24  TRP24       0.0001
     33  CH2       13.2400   62.4610   85.6540 C.ar   24  TRP24       0.0015
     34  N          8.4680   60.3610   82.4940 N.3    59  ASP59      -0.1239
     35  CA         8.5340   59.0690   81.8100 C.3    59  ASP59       0.1674
     36  C          9.9390   58.4650   81.7940 C.2    59  ASP59       0.2266
     37  O         10.3400   57.8470   80.8070 O.2    59  ASP59      -0.2867
     38  CB         8.0410   59.2010   80.3650 C.3    59  ASP59       0.1410
     39  CG         6.6730   59.8470   80.3420 C.2    59  ASP59       0.3668
     40  OD1        5.7380   59.2910   80.9530 O.co2  59  ASP59      -0.2456
     41  OD2        6.5280   60.9180   79.7120 O.co2  59  ASP59      -0.2456
     42  N         13.2050   57.2310   81.0160 N.3    61  CYS61      -0.1221
     43  CA        14.0130   57.2930   79.7990 C.3    61  CYS61       0.1808
     44  C         13.2360   57.7360   78.5680 C.2    61  CYS61       0.2602
     45  O         13.8040   57.8870   77.4850 O.2    61  CYS61      -0.2717
     46  CB        14.6550   55.9330   79.5180 C.3    61  CYS61       0.0970
     47  SG        16.0280   55.6710   80.6830 S.3    61  CYS61      -0.0800
     48  N         11.9370   57.9460   78.7350 N.am   62  GLY62      -0.1942
     49  CA        11.1200   58.3700   77.6160 C.3    62  GLY62       0.2014
     50  C         10.7860   59.8510   77.6030 C.2    62  GLY62       0.2639
     51  O          9.9710   60.2830   76.7950 O.2    62  GLY62      -0.2714
     52  N         11.4080   60.6310   78.4850 N.am   63  GLY63      -0.1939
     53  CA        11.1360   62.0590   78.5240 C.3    63  GLY63       0.2014
     54  C         10.6440   62.5480   79.8760 C.2    63  GLY63       0.2639
     55  O         10.2330   61.7480   80.7230 O.2    63  GLY63      -0.2714
     56  N         10.6850   63.8610   80.0820 N.am   64  GLY64      -0.1939
     57  CA        10.2360   64.4260   81.3430 C.3    64  GLY64       0.2014
     58  C         10.3840   65.9330   81.4570 C.2    64  GLY64       0.2639
     59  O         10.8150   66.6060   80.5210 O.2    64  GLY64      -0.2714
     60  N         10.0340   66.4590   82.6260 N.am   65  TYR65      -0.1959
     61  CA        10.0990   67.8890   82.8940 C.3    65  TYR65       0.1771
     62  C         10.9560   68.2030   84.1140 C.2    65  TYR65       0.2619
     63  O         10.8450   67.5370   85.1460 O.2    65  TYR65      -0.2715
     64  CB         8.6850   68.4310   83.1150 C.3    65  TYR65       0.0574
     65  CG         7.9230   68.3210   81.8240 C.ar   65  TYR65      -0.0198
     66  CD1        8.1490   69.2190   80.7880 C.ar   65  TYR65      -0.0009
     67  CD2        7.0070   67.2990   81.6220 C.ar   65  TYR65      -0.0009
     68  CE1        7.4850   69.1020   79.5830 C.ar   65  TYR65       0.0417
     69  CE2        6.3380   67.1690   80.4160 C.ar   65  TYR65       0.0417
     70  CZ         6.5820   68.0750   79.4000 C.ar   65  TYR65       0.1957
     71  OH         5.9340   67.9520   78.1900 O.3    65  TYR65      -0.2866
     72  N         11.8000   69.2240   83.9910 N.am   66  MET66      -0.1977
     73  CA        12.6750   69.6430   85.0810 C.3    66  MET66       0.1605
     74  C         11.8580   70.0910   86.2920 C.2    66  MET66       0.2287
     75  O         12.2150   69.8050   87.4330 O.2    66  MET66      -0.2864
     76  CB        13.5880   70.7900   84.6260 C.3    66  MET66       0.0413
     77  CG        14.5930   70.2840   83.5900 C.3    66  MET66       0.0598
     78  SD        13.8440   70.2570   81.9450 S.3    66  MET66      -0.1393
     79  CE        14.1840   71.9420   81.3890 C.3    66  MET66       0.0692
     80  N         14.8060   74.2530   78.1980 N.3   132  ALA132     -0.1245
     81  CA        14.3990   73.2960   77.1840 C.3   132  ALA132      0.1562
     82  C         14.5350   73.9560   75.8120 C.2   132  ALA132      0.2260
     83  O         14.2500   75.1420   75.6480 O.2   132  ALA132     -0.2867
     84  CB        12.9750   72.8590   77.4250 C.3   132  ALA132      0.0290
     85  N          9.9590   71.9070   71.8000 N.3   158  LEU158     -0.1231
     86  CA        10.9290   71.6090   72.8520 C.3   158  LEU158      0.1693
     87  C         11.0130   70.0990   73.0010 C.2   158  LEU158      0.2592
     88  O         10.0130   69.4350   73.2670 O.2   158  LEU158     -0.2718
     89  CB        10.4910   72.2440   74.1740 C.3   158  LEU158      0.0284
     90  CG        10.1610   73.7190   73.9280 C.3   158  LEU158      0.0019
     91  CD1        9.7290   74.3680   75.2190 C.3   158  LEU158      0.0001
     92  CD2       11.3760   74.4330   73.3520 C.3   158  LEU158      0.0001
     93  N         12.2080   69.5530   72.8340 N.am  159  ASN159     -0.1960
     94  CA        12.3770   68.1110   72.9150 C.3   159  ASN159      0.1819
     95  C         13.6730   67.6990   73.5820 C.2   159  ASN159      0.2621
     96  O         14.0500   66.5370   73.5150 O.2   159  ASN159     -0.2715
     97  CB        12.3290   67.5150   71.5040 C.3   159  ASN159      0.1195
     98  CG        13.1870   68.3700   70.5770 C.2   159  ASN159      0.2630
     99  OD1       14.3920   68.4970   70.7730 O.2   159  ASN159     -0.2716
    100  ND2       12.5610   68.9650   69.5620 N.am  159  ASN159     -0.0877
    101  N         14.3490   68.6400   74.2330 N.am  160  HIS160     -0.1959
    102  CA        15.6210   68.3300   74.8670 C.3   160  HIS160      0.1787
    103  C         15.9350   69.3280   75.9830 C.2   160  HIS160      0.2620
    104  O         15.7280   70.5340   75.8260 O.2   160  HIS160     -0.2715
    105  CB        16.7130   68.3570   73.7940 C.3   160  HIS160      0.0785
    106  CG        17.9940   67.8120   74.3320 C.ar  160  HIS160      0.0821
    107  ND1       18.0640   66.6110   75.0020 N.ar  160  HIS160     -0.2267
    108  CD2       19.2650   68.2750   74.2480 C.ar  160  HIS160      0.1154
    109  CE1       19.3250   66.3550   75.3080 C.ar  160  HIS160      0.1986
    110  NE2       20.0730   67.3480   74.8600 N.ar  160  HIS160     -0.2212
    111  N         16.4350   68.8230   77.1080 N.am  161  ALA161     -0.1977
    112  CA        16.7640   69.6800   78.2410 C.3   161  ALA161      0.1597
    113  C         18.2700   69.7660   78.4450 C.2   161  ALA161      0.2287
    114  O         18.9670   68.7520   78.4460 O.2   161  ALA161     -0.2864
    115  CB        16.0960   69.1610   79.5050 C.3   161  ALA161      0.0319
    116  N         25.5400   64.5600   76.4470 N.3   182  TRP182     -0.1241
    117  CA        25.7600   63.5390   75.4300 C.3   182  TRP182      0.1605
    118  C         27.2270   63.1430   75.3610 C.2   182  TRP182      0.2264
    119  O         27.6890   62.6440   74.3300 O.2   182  TRP182     -0.2867
    120  CB        25.3360   64.0500   74.0570 C.3   182  TRP182      0.0550
    121  CG        23.8560   64.1840   73.9810 C.ar  182  TRP182      0.0003
    122  CD1       22.9290   63.5900   74.7930 C.ar  182  TRP182      0.0946
    123  CD2       23.1190   64.9020   72.9870 C.ar  182  TRP182      0.0152
    124  NE1       21.6600   63.8960   74.3590 N.ar  182  TRP182     -0.2442
    125  CE2       21.7500   64.7000   73.2530 C.ar  182  TRP182      0.0810
    126  CE3       23.4860   65.6990   71.8960 C.ar  182  TRP182      0.0012
    127  CZ2       20.7450   65.2680   72.4640 C.ar  182  TRP182      0.0191
    128  CZ3       22.4890   66.2630   71.1170 C.ar  182  TRP182      0.0001
    129  CH2       21.1360   66.0440   71.4050 C.ar  182  TRP182      0.0015
    130  N         10.8760   77.3580   78.3150 N.3   207  LEU207     -0.1245
    131  CA        10.6570   76.4410   79.4250 C.3   207  LEU207      0.1561
    132  C         11.9010   76.3730   80.3170 C.2   207  LEU207      0.2260
    133  O         12.4960   75.3110   80.4850 O.2   207  LEU207     -0.2867
    134  CB        10.3210   75.0500   78.8720 C.3   207  LEU207      0.0270
    135  CG         9.6530   74.1840   79.9480 C.3   207  LEU207      0.0019
    136  CD1        8.3070   74.7610   80.3270 C.3   207  LEU207      0.0001
    137  CD2        9.4790   72.7750   79.4160 C.3   207  LEU207      0.0001
@<TRIPOS>BOND
     1   100    98   am
     2    98    99    2
     3    98    97    1
     4   128   129   ar
     5   128   126   ar
     6   129   127   ar
     7    97    94    1
     8    85    86    1
     9   126   123   ar
    10   127   125   ar
    11    93    94    1
    12    93    87   am
    13    86    87    1
    14    86    89    1
    15    94    95    1
    16   123   125   ar
    17   123   121   ar
    18    87    88    2
    19   125   124   ar
    20    92    90    1
    21    96    95    2
    22    95   101   am
    23   105   106    1
    24   105   102    1
    25    90    89    1
    26    90    91    1
    27   121   120    1
    28   121   122   ar
    29   120   117    1
    30   101   102    1
    31   108   106   ar
    32   108   110   ar
    33   119   118    2
    34   106   107   ar
    35   124   122   ar
    36   110   109   ar
    37   102   103    1
    38   107   109   ar
    39   118   117    1
    40   117   116    1
    41    83    82    2
    42    82    81    1
    43   104   103    2
    44   103   111   am
    45    51    50    2
    46     9     7   am
    47    11    10    1
    48    11    12    1
    49   111   112    1
    50    81    84    1
    51    81    80    1
    52    45    44    2
    53     8     7    2
    54     7     6    1
    55    50    49    1
    56    50    52   am
    57    49    48    1
    58    19    18    1
    59    18    15    1
    60    71    70    1
    61     5     6    1
    62     5     2    1
    63   112   113    1
    64   112   115    1
    65   130   131    1
    66    12    13    2
    67   113   114    2
    68    52    53    1
    69    53    54    1
    70    44    48   am
    71    44    43    1
    72     3     2    1
    73     3     4    2
    74     1     2    1
    75   134   131    1
    76   134   135    1
    77    15    14    1
    78    15    16    1
    79    70    68   ar
    80    70    69   ar
    81   137   135    1
    82   131   132    1
    83    46    43    1
    84    46    47    1
    85    68    66   ar
    86    41    39   ar
    87    43    42    1
    88    54    56   am
    89    54    55    2
    90   135   136    1
    91    56    57    1
    92   132   133    2
    93    39    38    1
    94    39    40   ar
    95    38    35    1
    96    69    67   ar
    97    16    20   am
    98    16    17    2
    99    59    58    2
   100    20    21    1
   101    66    65   ar
   102    37    36    2
   103    26    28   ar
   104    26    25   ar
   105    57    58    1
   106    79    78    1
   107    58    60   am
   108    67    65   ar
   109    36    35    1
   110    35    34    1
   111    21    24    1
   112    21    22    1
   113    65    64    1
   114    24    25    1
   115    78    77    1
   116    28    29   ar
   117    25    27   ar
   118    60    61    1
   119    61    64    1
   120    61    62    1
   121    22    23    2
   122    29    27   ar
   123    29    31   ar
   124    27    30   ar
   125    77    76    1
   126    72    62   am
   127    72    73    1
   128    62    63    2
   129    31    33   ar
   130    76    73    1
   131    30    32   ar
   132    73    74    1
   133    33    32   ar
   134    74    75    2
