@<TRIPOS>MOLECULE
tmp/2auyA00.pdb
 135 129 0 0 0
SMALL
GASTEIGER

@<TRIPOS>ATOM
      1  N         13.5610   38.4840   21.4060 N.3    43  ALA43      -0.1231
      2  CA        12.1750   38.8860   21.6250 C.3    43  ALA43       0.1694
      3  C         11.2960   38.6240   20.4070 C.2    43  ALA43       0.2592
      4  O         11.7920   38.3340   19.3190 O.2    43  ALA43      -0.2718
      5  CB        12.1190   40.3700   21.9870 C.3    43  ALA43       0.0304
      6  N          9.9860   38.7310   20.6090 N.am   44  SER44      -0.1952
      7  CA         8.9960   38.5470   19.5550 C.3    44  SER44       0.1924
      8  C          9.2130   37.3070   18.7010 C.2    44  SER44       0.2314
      9  O          9.5800   37.4020   17.5280 O.2    44  SER44      -0.2863
     10  CB         8.9600   39.7850   18.6540 C.3    44  SER44       0.2116
     11  OG         8.6410   40.9430   19.4010 O.3    44  SER44      -0.2180
     12  N         10.2580   35.1420   29.6810 N.3    84  ALA84      -0.1231
     13  CA         8.8730   35.0240   29.2140 C.3    84  ALA84       0.1694
     14  C          8.8970   34.3080   27.8640 C.2    84  ALA84       0.2592
     15  O          9.9400   34.2760   27.2100 O.2    84  ALA84      -0.2718
     16  CB         8.2540   36.4120   29.0650 C.3    84  ALA84       0.0304
     17  N          7.7680   33.7500   27.4260 N.am   85  ASP85      -0.1974
     18  CA         6.4960   33.7730   28.1450 C.3    85  ASP85       0.1709
     19  C          6.0560   32.4230   28.7010 C.2    85  ASP85       0.2293
     20  O          5.2270   32.3590   29.6110 O.2    85  ASP85      -0.2864
     21  CB         5.4060   34.3050   27.2190 C.3    85  ASP85       0.1436
     22  CG         5.3320   35.8130   27.2180 C.2    85  ASP85       0.3671
     23  OD1        4.6980   36.3670   28.1410 O.co2  85  ASP85      -0.2456
     24  OD2        5.9240   36.4410   26.3160 O.co2  85  ASP85      -0.2456
     25  N         -1.0690   37.1530   15.5660 N.3   101  GLY101     -0.1225
     26  CA        -0.8740   37.9310   16.7790 C.3   101  GLY101      0.1811
     27  C         -0.9810   37.1430   18.0760 C.2   101  GLY101      0.2280
     28  O         -1.3410   37.7000   19.1150 O.2   101  GLY101     -0.2866
     29  N          1.4760   35.8520   19.7550 N.3   103  GLY103     -0.1210
     30  CA         2.7360   35.8380   20.4720 C.3   103  GLY103      0.1956
     31  C          2.5950   36.2760   21.9220 C.2   103  GLY103      0.2612
     32  O          1.4850   36.3810   22.4500 O.2   103  GLY103     -0.2717
     33  N          3.7260   36.5340   22.5690 N.am  104  GLY104     -0.1942
     34  CA         3.7000   36.9660   23.9540 C.3   104  GLY104      0.2014
     35  C          2.9370   36.0350   24.8790 C.2   104  GLY104      0.2639
     36  O          3.0730   34.8110   24.8010 O.2   104  GLY104     -0.2714
     37  N          2.1220   36.6250   25.7480 N.am  105  GLY105     -0.1939
     38  CA         1.3470   35.8590   26.7080 C.3   105  GLY105      0.2014
     39  C          0.2850   34.9230   26.1580 C.2   105  GLY105      0.2638
     40  O         -0.3100   34.1610   26.9210 O.2   105  GLY105     -0.2714
     41  N          0.0250   34.9760   24.8550 N.am  106  LEU106     -0.1977
     42  CA        -0.9710   34.0850   24.2640 C.3   106  LEU106      0.1596
     43  C         -0.3310   32.7520   23.8800 C.2   106  LEU106      0.2287
     44  O         -0.9870   31.8590   23.3440 O.2   106  LEU106     -0.2864
     45  CB        -1.6390   34.7500   23.0570 C.3   106  LEU106      0.0297
     46  CG        -2.4820   35.9640   23.4730 C.3   106  LEU106      0.0022
     47  CD1       -3.1380   36.6040   22.2600 C.3   106  LEU106      0.0001
     48  CD2       -3.5430   35.5140   24.4720 C.3   106  LEU106      0.0001
     49  N         -5.6370   37.3120   19.7560 N.3   112  PRO112     -0.2116
     50  CA        -5.9770   38.3750   20.7000 C.3   112  PRO112      0.1372
     51  C         -7.4700   38.6230   20.8860 C.2   112  PRO112      0.2244
     52  O         -7.9590   38.6920   22.0120 O.2   112  PRO112     -0.2868
     53  CB        -5.2470   39.5800   20.1140 C.3   112  PRO112      0.0268
     54  CG        -4.0080   38.9320   19.5500 C.3   112  PRO112      0.0207
     55  CD        -4.6630   37.8140   18.7720 C.3   112  PRO112      0.0892
     56  N          5.4760   34.4520   32.9620 N.3   131  PHE131     -0.1241
     57  CA         5.2850   35.9060   32.9440 C.3   131  PHE131      0.1605
     58  C          3.8310   36.2260   33.2560 C.2   131  PHE131      0.2264
     59  O          2.9280   35.7470   32.5780 O.2   131  PHE131     -0.2867
     60  CB         5.6500   36.4660   31.5670 C.3   131  PHE131      0.0534
     61  CG         5.7870   37.9610   31.5390 C.ar  131  PHE131     -0.0203
     62  CD1        6.9520   38.5720   31.9950 C.ar  131  PHE131     -0.0042
     63  CD2        4.7360   38.7600   31.1040 C.ar  131  PHE131     -0.0042
     64  CE1        7.0690   39.9670   32.0180 C.ar  131  PHE131     -0.0003
     65  CE2        4.8390   40.1540   31.1230 C.ar  131  PHE131     -0.0003
     66  CZ         6.0100   40.7560   31.5820 C.ar  131  PHE131     -0.0000
     67  N          2.7760   39.7770   34.3970 N.3   133  ALA133     -0.1245
     68  CA         2.5410   41.2110   34.5930 C.3   133  ALA133      0.1562
     69  C          1.0940   41.5490   34.2260 C.2   133  ALA133      0.2260
     70  O          0.6360   41.2660   33.1180 O.2   133  ALA133     -0.2867
     71  CB         3.5160   42.0330   33.7540 C.3   133  ALA133      0.0290
     72  N         -0.3800   44.2600   33.4030 N.3   135  ASP135     -0.1225
     73  CA        -0.6580   45.2430   32.3620 C.3   135  ASP135      0.1805
     74  C         -0.9700   44.5460   31.0340 C.2   135  ASP135      0.2598
     75  O         -1.8130   45.0100   30.2630 O.2   135  ASP135     -0.2718
     76  CB         0.5340   46.1900   32.1720 C.3   135  ASP135      0.1424
     77  CG         1.8310   45.4500   31.8950 C.2   135  ASP135      0.3668
     78  OD1        2.3150   44.7490   32.8070 O.co2 135  ASP135     -0.2456
     79  OD2        2.3640   45.5650   30.7680 O.co2 135  ASP135     -0.2456
     80  N         -0.2970   43.4250   30.7810 N.am  136  SER136     -0.1938
     81  CA        -0.4780   42.6760   29.5350 C.3   136  SER136      0.2055
     82  C         -1.1180   41.2910   29.6970 C.2   136  SER136      0.2643
     83  O         -1.8730   40.8520   28.8280 O.2   136  SER136     -0.2714
     84  CB         0.8660   42.5330   28.8230 C.3   136  SER136      0.2130
     85  OG         1.8100   41.9000   29.6650 O.3   136  SER136     -0.2179
     86  N         -0.8070   40.5950   30.7890 N.am  137  ASN137     -0.1971
     87  CA        -1.3890   39.2730   31.0390 C.3   137  ASN137      0.1688
     88  C         -2.4380   39.4020   32.1410 C.2   137  ASN137      0.2292
     89  O         -2.2890   38.8350   33.2250 O.2   137  ASN137     -0.2864
     90  CB        -0.3150   38.2720   31.4770 C.3   137  ASN137      0.1181
     91  CG         0.7010   37.9750   30.3830 C.2   137  ASN137      0.2629
     92  OD1        1.1080   36.8280   30.2080 O.2   137  ASN137     -0.2716
     93  ND2        1.1320   39.0060   29.6620 N.am  137  ASN137     -0.0877
     94  N         -5.2550   38.0860   32.5630 N.3   139  TRP139     -0.1241
     95  CA        -5.9380   36.8470   32.9210 C.3   139  TRP139      0.1605
     96  C         -5.1580   35.9650   33.8960 C.2   139  TRP139      0.2264
     97  O         -5.7200   35.0280   34.4580 O.2   139  TRP139     -0.2867
     98  CB        -6.2220   36.0590   31.6430 C.3   139  TRP139      0.0550
     99  CG        -4.9760   35.8710   30.8520 C.ar  139  TRP139      0.0003
    100  CD1       -3.9620   34.9930   31.1130 C.ar  139  TRP139      0.0946
    101  CD2       -4.5370   36.6760   29.7550 C.ar  139  TRP139      0.0152
    102  NE1       -2.9190   35.2060   30.2490 N.ar  139  TRP139     -0.2442
    103  CE2       -3.2430   36.2340   29.4040 C.ar  139  TRP139      0.0810
    104  CE3       -5.1110   37.7320   29.0360 C.ar  139  TRP139      0.0012
    105  CZ2       -2.5100   36.8110   28.3610 C.ar  139  TRP139      0.0191
    106  CZ3       -4.3820   38.3090   27.9980 C.ar  139  TRP139      0.0001
    107  CH2       -3.0950   37.8460   27.6720 C.ar  139  TRP139      0.0015
    108  N          7.6330   34.2910   23.0740 N.3   218  SER218     -0.1202
    109  CA         8.3020   35.3300   23.8470 C.3   218  SER218      0.2020
    110  C          7.8110   36.6470   23.2550 C.2   218  SER218      0.2619
    111  O          7.7670   36.8020   22.0330 O.2   218  SER218     -0.2717
    112  CB         9.8260   35.2500   23.7060 C.3   218  SER218      0.2103
    113  OG        10.3650   34.1040   24.3380 O.3   218  SER218     -0.2182
    114  N          7.4140   37.5730   24.1190 N.am  219  GLY219     -0.1942
    115  CA         6.9530   38.8720   23.6630 C.3   219  GLY219      0.2014
    116  C          8.1040   39.8440   23.8250 C.2   219  GLY219      0.2639
    117  O          9.1620   39.6560   23.2200 O.2   219  GLY219     -0.2714
    118  N          7.9240   40.8730   24.6460 N.am  220  GLU220     -0.1963
    119  CA         9.0040   41.8300   24.8480 C.3   220  GLU220      0.1733
    120  C         10.0490   41.2640   25.8060 C.2   220  GLU220      0.2616
    121  O         11.1930   41.7130   25.8220 O.2   220  GLU220     -0.2715
    122  CB         8.4510   43.1650   25.3430 C.3   220  GLU220      0.0429
    123  CG         7.4040   43.7270   24.4010 C.3   220  GLU220      0.1163
    124  CD         7.0860   45.1790   24.6650 C.2   220  GLU220      0.3649
    125  OE1        6.0970   45.6810   24.0880 O.co2 220  GLU220     -0.2457
    126  OE2        7.8340   45.8220   25.4320 O.co2 220  GLU220     -0.2457
    127  N          9.6450   40.2770   26.6040 N.am  221  GLN221     -0.1977
    128  CA        10.5540   39.5890   27.5220 C.3   221  GLN221      0.1601
    129  C         10.8190   38.2470   26.8510 C.2   221  GLN221      0.2287
    130  O          9.9700   37.7480   26.1140 O.2   221  GLN221     -0.2864
    131  CB         9.9040   39.3780   28.8910 C.3   221  GLN221      0.0394
    132  CG         9.7140   40.6570   29.6820 C.3   221  GLN221      0.0908
    133  CD        11.0310   41.2820   30.1010 C.2   221  GLN221      0.2608
    134  OE1       11.0570   42.3540   30.7010 O.2   221  GLN221     -0.2717
    135  NE2       12.1320   40.6080   29.7940 N.am  221  GLN221     -0.0878
@<TRIPOS>BOND
     1    25    26    1
     2    26    27    1
     3     9     8    2
     4    27    28    2
     5    10    11    1
     6    10     7    1
     7     8     7    1
     8    55    54    1
     9    55    49    1
    10     4     3    2
    11    54    53    1
    12     7     6    1
    13    29    30    1
    14    49    50    1
    15    53    50    1
    16     3     6   am
    17     3     2    1
    18    30    31    1
    19    50    51    1
    20    51    52    2
    21     1     2    1
    22     2     5    1
    23    31    32    2
    24    31    33   am
    25   111   110    2
    26    47    46    1
    27    33    34    1
    28    45    46    1
    29    45    42    1
    30   108   109    1
    31   117   116    2
    32   110   109    1
    33   110   114   am
    34    44    43    2
    35    46    48    1
    36   115   116    1
    37   115   114    1
    38   112   109    1
    39   112   113    1
    40   116   118   am
    41    43    42    1
    42    34    35    1
    43   125   124   ar
    44    42    41    1
    45   123   124    1
    46   123   122    1
    47   118   119    1
    48   124   126   ar
    49    36    35    2
    50   119   122    1
    51   119   120    1
    52    41    39   am
    53    35    37   am
    54    37    38    1
    55   120   121    2
    56   120   127   am
    57   130   129    2
    58    39    38    1
    59    39    40    2
    60    24    22   ar
    61   127   128    1
    62   129   128    1
    63    15    14    2
    64    22    21    1
    65    22    23   ar
    66    21    18    1
    67    17    14   am
    68    17    18    1
    69   128   131    1
    70   107   106   ar
    71   107   105   ar
    72    14    13    1
    73   106   104   ar
    74    18    19    1
    75   105   103   ar
    76    19    20    2
    77    84    81    1
    78    84    85    1
    79    83    82    2
    80   131   132    1
    81   104   101   ar
    82    16    13    1
    83    13    12    1
    84   103   101   ar
    85   103   102   ar
    86    81    82    1
    87    81    80    1
    88    93    91   am
    89   132   133    1
    90    82    86   am
    91   101    99   ar
    92   135   133   am
    93   133   134    2
    94    92    91    2
    95   102   100   ar
    96    75    74    2
    97    91    90    1
    98    79    77   ar
    99    80    74   am
   100    86    87    1
   101    99   100   ar
   102    99    98    1
   103    74    73    1
   104    87    90    1
   105    87    88    1
   106    63    65   ar
   107    63    61   ar
   108    65    66   ar
   109    61    60    1
   110    61    62   ar
   111    60    57    1
   112    66    64   ar
   113    98    95    1
   114    77    76    1
   115    77    78   ar
   116    62    64   ar
   117    88    89    2
   118    76    73    1
   119    73    72    1
   120    94    95    1
   121    59    58    2
   122    95    96    1
   123    57    56    1
   124    57    58    1
   125    70    69    2
   126    71    68    1
   127    96    97    2
   128    69    68    1
   129    67    68    1
