@<TRIPOS>MOLECULE
tmp/2auzA00.pdb
 115 112 0 0 0
SMALL
GASTEIGER

@<TRIPOS>ATOM
      1  N         85.0170  -12.0230  132.5310 N.3    19  GLN19      -0.1245
      2  CA        83.8790  -12.9330  132.3850 C.3    19  GLN19       0.1566
      3  C         83.9270  -13.7660  131.1170 C.2    19  GLN19       0.2260
      4  O         83.4010  -14.8750  131.0870 O.2    19  GLN19      -0.2867
      5  CB        82.5590  -12.1620  132.3530 C.3    19  GLN19       0.0367
      6  CG        82.3790  -11.3380  133.5950 C.3    19  GLN19       0.0905
      7  CD        81.2980  -10.3180  133.3250 C.2    19  GLN19       0.2608
      8  OE1       81.2140   -9.2960  134.0020 O.2    19  GLN19      -0.2717
      9  NE2       80.4580  -10.5930  132.3320 N.am   19  GLN19      -0.0878
     10  N         77.4820  -14.1880  130.9980 N.3    23  GLY23      -0.1225
     11  CA        76.8430  -13.1510  131.7820 C.3    23  GLY23       0.1811
     12  C         76.9900  -13.4610  133.2550 C.2    23  GLY23       0.2280
     13  O         76.0010  -13.6280  133.9600 O.2    23  GLY23      -0.2866
     14  N         78.6700  -11.4170  135.4510 N.3    25  CYS25      -0.1221
     15  CA        79.0700  -10.2080  136.1530 C.3    25  CYS25       0.1808
     16  C         78.7800  -10.3450  137.6590 C.2    25  CYS25       0.2601
     17  O         79.6320  -10.0380  138.4960 O.2    25  CYS25      -0.2717
     18  CB        78.3320   -8.9750  135.5750 C.3    25  CYS25       0.0970
     19  SG        76.8860   -9.1560  135.6030 S.3    25  CYS25      -0.0800
     20  N         77.5890  -10.8320  137.9990 N.am   26  TRP26      -0.1976
     21  CA        77.2070  -10.9820  139.3980 C.3    26  TRP26       0.1640
     22  C         78.1000  -11.9160  140.2150 C.2    26  TRP26       0.2290
     23  O         78.2850  -11.7040  141.4170 O.2    26  TRP26      -0.2864
     24  CB        75.7510  -11.4460  139.5070 C.3    26  TRP26       0.0576
     25  CG        75.5780  -12.7730  138.8420 C.ar   26  TRP26       0.0006
     26  CD1       75.2510  -13.0030  137.5370 C.ar   26  TRP26       0.0946
     27  CD2       75.7190  -14.0610  139.4530 C.ar   26  TRP26       0.0152
     28  NE1       75.1740  -14.3550  137.2990 N.ar   26  TRP26      -0.2442
     29  CE2       75.4570  -15.0270  138.4590 C.ar   26  TRP26       0.0810
     30  CE3       76.0420  -14.4910  140.7430 C.ar   26  TRP26       0.0012
     31  CZ2       75.5070  -16.3970  138.7160 C.ar   26  TRP26       0.0191
     32  CZ3       76.0920  -15.8510  140.9970 C.ar   26  TRP26       0.0001
     33  CH2       75.8250  -16.7880  139.9860 C.ar   26  TRP26       0.0015
     34  N         75.3140  -18.1060  133.3830 N.3    63  CYS63      -0.1221
     35  CA        75.7330  -17.1290  132.3850 C.3    63  CYS63       0.1808
     36  C         74.5580  -16.2620  131.9570 C.2    63  CYS63       0.2602
     37  O         74.7230  -15.3100  131.1950 O.2    63  CYS63      -0.2717
     38  CB        76.3340  -17.8360  131.1590 C.3    63  CYS63       0.0970
     39  SG        77.9550  -18.5170  131.6220 S.3    63  CYS63      -0.0800
     40  N         73.3710  -16.5980  132.4520 N.am   64  GLY64      -0.1942
     41  CA        72.1850  -15.8300  132.1100 C.3    64  GLY64       0.2014
     42  C         71.8760  -14.7200  133.1010 C.2    64  GLY64       0.2639
     43  O         70.8600  -14.0390  132.9770 O.2    64  GLY64      -0.2714
     44  N         72.7510  -14.5300  134.0840 N.am   65  GLY65      -0.1939
     45  CA        72.5340  -13.4910  135.0750 C.3    65  GLY65       0.2014
     46  C         72.2310  -14.0440  136.4560 C.2    65  GLY65       0.2639
     47  O         71.9470  -15.2320  136.6150 O.2    65  GLY65      -0.2714
     48  N         72.2980  -13.1730  137.4590 N.am   66  GLY66      -0.1939
     49  CA        72.0230  -13.5800  138.8230 C.3    66  GLY66       0.2014
     50  C         72.1410  -12.4200  139.7940 C.2    66  GLY66       0.2639
     51  O         72.6990  -11.3720  139.4540 O.2    66  GLY66      -0.2714
     52  N         71.6000  -12.6020  140.9970 N.am   67  TYR67      -0.1959
     53  CA        71.6580  -11.5880  142.0450 C.3    67  TYR67       0.1771
     54  C         72.7710  -11.9500  143.0190 C.2    67  TYR67       0.2619
     55  O         72.9180  -13.1200  143.3880 O.2    67  TYR67      -0.2715
     56  CB        70.3270  -11.5140  142.8030 C.3    67  TYR67       0.0574
     57  CG        69.2830  -10.8240  141.9470 C.ar   67  TYR67      -0.0198
     58  CD1       69.4180   -9.4870  141.5990 C.ar   67  TYR67      -0.0009
     59  CD2       68.1690  -11.5150  141.4810 C.ar   67  TYR67      -0.0009
     60  CE1       68.4740   -8.8550  140.8110 C.ar   67  TYR67       0.0417
     61  CE2       67.2210  -10.8940  140.6920 C.ar   67  TYR67       0.0417
     62  CZ        67.3780   -9.5630  140.3590 C.ar   67  TYR67       0.1957
     63  OH        66.4440   -8.9390  139.5690 O.3    67  TYR67      -0.2866
     64  N         73.5520  -10.9500  143.4250 N.am   68  MET68      -0.1977
     65  CA        74.6500  -11.1650  144.3630 C.3    68  MET68       0.1605
     66  C         74.1580  -11.7100  145.7050 C.2    68  MET68       0.2287
     67  O         74.8230  -12.5320  146.3270 O.2    68  MET68      -0.2864
     68  CB        75.4280   -9.8600  144.6090 C.3    68  MET68       0.0413
     69  CG        76.1820   -9.4310  143.3540 C.3    68  MET68       0.0598
     70  SD        75.0530   -8.6180  142.1980 S.3    68  MET68      -0.1393
     71  CE        75.0340   -6.9550  142.8650 C.3    68  MET68       0.0692
     72  N         75.1730   -2.7560  141.4210 N.3   134  ALA134     -0.1245
     73  CA        74.6620   -2.9930  140.0800 C.3   134  ALA134      0.1562
     74  C         74.3780   -1.6520  139.4280 C.2   134  ALA134      0.2260
     75  O         74.0030   -0.6870  140.0990 O.2   134  ALA134     -0.2867
     76  CB        73.3970   -3.8190  140.1410 C.3   134  ALA134      0.0290
     77  N         69.0700   -1.5960  135.6890 N.3   160  LEU160     -0.1231
     78  CA        70.2720   -2.2390  136.2030 C.3   160  LEU160      0.1693
     79  C         70.4790   -3.5110  135.3810 C.2   160  LEU160      0.2592
     80  O         69.5990   -4.3710  135.3360 O.2   160  LEU160     -0.2718
     81  CB        70.0850   -2.6060  137.6780 C.3   160  LEU160      0.0284
     82  CG        69.7600   -1.3570  138.5040 C.3   160  LEU160      0.0019
     83  CD1       69.4860   -1.7860  139.9320 C.3   160  LEU160      0.0001
     84  CD2       70.9080   -0.3550  138.4590 C.3   160  LEU160      0.0001
     85  N         71.6350   -3.6380  134.7380 N.am  161  ASN161     -0.1960
     86  CA        71.9030   -4.8070  133.9040 C.3   161  ASN161      0.1819
     87  C         73.3200   -5.3410  134.0180 C.2   161  ASN161      0.2621
     88  O         73.6650   -6.3200  133.3670 O.2   161  ASN161     -0.2715
     89  CB        71.6160   -4.4700  132.4360 C.3   161  ASN161      0.1195
     90  CG        72.2360   -3.1240  132.0930 C.2   161  ASN161      0.2630
     91  OD1       73.4510   -2.9330  132.2140 O.2   161  ASN161     -0.2716
     92  ND2       71.3990   -2.1760  131.6660 N.am  161  ASN161     -0.0877
     93  N         74.1360   -4.7100  134.8560 N.am  162  HIS162     -0.1959
     94  CA        75.5280   -5.1130  135.0150 C.3   162  HIS162      0.1787
     95  C         75.9680   -4.9790  136.4720 C.2   162  HIS162      0.2620
     96  O         75.8010   -3.9200  137.0760 O.2   162  HIS162     -0.2715
     97  CB        76.4030   -4.2240  134.1240 C.3   162  HIS162      0.0785
     98  CG        77.8070   -4.7390  134.0660 C.ar  162  HIS162      0.0821
     99  ND1       78.1330   -5.9500  133.4910 N.ar  162  HIS162     -0.2267
    100  CD2       78.9750   -4.1940  134.4840 C.ar  162  HIS162      0.1154
    101  CE1       79.4410   -6.1260  133.5560 C.ar  162  HIS162      0.1986
    102  NE2       79.9760   -5.0750  134.1530 N.ar  162  HIS162     -0.2212
    103  N         76.5350   -6.0470  137.0280 N.am  163  ALA163     -0.1977
    104  CA        76.9930   -6.0370  138.4150 C.3   163  ALA163      0.1597
    105  C         78.4930   -5.7620  138.5240 C.2   163  ALA163      0.2287
    106  O         79.2880   -6.2870  137.7560 O.2   163  ALA163     -0.2864
    107  CB        76.6600   -7.3660  139.0860 C.3   163  ALA163      0.0319
    108  N         71.0710   -1.3000  144.0760 N.3   209  LEU209     -0.1245
    109  CA        71.1640   -2.7260  144.3680 C.3   209  LEU209      0.1561
    110  C         72.5120   -3.0640  144.9880 C.2   209  LEU209      0.2260
    111  O         73.2370   -3.9250  144.4940 O.2   209  LEU209     -0.2867
    112  CB        70.9760   -3.5310  143.0830 C.3   209  LEU209      0.0270
    113  CG        70.6370   -4.9780  143.4300 C.3   209  LEU209      0.0019
    114  CD1       69.2450   -5.0320  144.0170 C.3   209  LEU209      0.0001
    115  CD2       70.7170   -5.8400  142.1800 C.3   209  LEU209      0.0001
@<TRIPOS>BOND
     1    10    11    1
     2     4     3    2
     3     3     2    1
     4    38    39    1
     5    38    35    1
     6    37    36    2
     7    92    90   am
     8    11    12    1
     9    36    35    1
    10    36    40   am
    11    90    91    2
    12    90    89    1
    13    41    40    1
    14    41    42    1
    15     9     7   am
    16     5     2    1
    17     5     6    1
    18     2     1    1
    19    35    34    1
    20    89    86    1
    21    43    42    2
    22    42    44   am
    23    12    13    2
    24     7     6    1
    25     7     8    2
    26    88    87    2
    27    99   101   ar
    28    99    98   ar
    29   101   102   ar
    30    86    87    1
    31    86    85    1
    32    87    93   am
    33    98    97    1
    34    98   100   ar
    35    44    45    1
    36    97    94    1
    37   102   100   ar
    38    85    79   am
    39    93    94    1
    40    94    95    1
    41    45    46    1
    42    80    79    2
    43    79    78    1
    44    14    15    1
    45    18    19    1
    46    18    15    1
    47    77    78    1
    48    15    16    1
    49    78    81    1
    50    46    47    2
    51    46    48   am
    52    95   103   am
    53    95    96    2
    54   103   104    1
    55    28    26   ar
    56    28    29   ar
    57    48    49    1
    58    26    25   ar
    59    16    20   am
    60    16    17    2
    61    81    82    1
    62   106   105    2
    63    20    21    1
    64   104   105    1
    65   104   107    1
    66    84    82    1
    67    29    31   ar
    68    29    27   ar
    69    82    83    1
    70    31    33   ar
    71    49    50    1
    72    25    27   ar
    73    25    24    1
    74    21    24    1
    75    21    22    1
    76    74    73    1
    77    74    75    2
    78    27    30   ar
    79    51    50    2
    80    63    62    1
    81    50    52   am
    82    33    32   ar
    83    73    76    1
    84    73    72    1
    85    22    23    2
    86    62    61   ar
    87    62    60   ar
    88    61    59   ar
    89    30    32   ar
    90    60    58   ar
    91    52    53    1
    92    59    57   ar
    93    58    57   ar
    94    57    56    1
    95    53    56    1
    96    53    54    1
    97   115   113    1
    98    70    71    1
    99    70    69    1
   100    54    55    2
   101    54    64   am
   102   112   113    1
   103   112   109    1
   104    69    68    1
   105    64    65    1
   106   113   114    1
   107   108   109    1
   108    65    68    1
   109    65    66    1
   110   109   110    1
   111   111   110    2
   112    66    67    2
