@<TRIPOS>MOLECULE
tmp/2avdB00.pdb
 178 172 0 0 0
SMALL
GASTEIGER

@<TRIPOS>ATOM
      1  N        -10.6260   -5.9270   56.9530 N.3    41  SER41      -0.1202
      2  CA        -9.2060   -5.5810   57.0710 C.3    41  SER41       0.2020
      3  C         -8.3060   -6.5760   56.3210 C.2    41  SER41       0.2619
      4  O         -7.0950   -6.3780   56.2540 O.2    41  SER41      -0.2717
      5  CB        -8.7890   -5.5200   58.5410 C.3    41  SER41       0.2103
      6  OG        -8.7120   -6.8330   59.0730 O.3    41  SER41      -0.2182
      7  N         -8.8970   -7.6400   55.7710 N.am   42  MET42      -0.1965
      8  CA        -8.1210   -8.6840   55.0920 C.3    42  MET42       0.1736
      9  C         -7.4270   -8.1270   53.8440 C.2    42  MET42       0.2616
     10  O         -7.8400   -7.1170   53.3060 O.2    42  MET42      -0.2715
     11  CB        -9.0090   -9.8840   54.7000 C.3    42  MET42       0.0427
     12  CG        -9.9520   -9.6330   53.5100 C.3    42  MET42       0.0599
     13  SD       -10.8450  -11.1060   52.8950 S.3    42  MET42      -0.1393
     14  CE        -9.5690  -12.3430   52.9870 C.3    42  MET42       0.0692
     15  N         -6.3860   -8.8120   53.3860 N.am   43  MET43      -0.1977
     16  CA        -5.7250   -8.4610   52.1300 C.3    43  MET43       0.1605
     17  C         -6.7100   -8.7530   51.0030 C.2    43  MET43       0.2287
     18  O         -7.3260   -9.8060   50.9910 O.2    43  MET43      -0.2864
     19  CB        -4.4940   -9.3430   51.9370 C.3    43  MET43       0.0413
     20  CG        -3.6660   -8.9900   50.7260 C.3    43  MET43       0.0598
     21  SD        -2.2780  -10.0810   50.5180 S.3    43  MET43      -0.1393
     22  CE        -1.1190   -9.3500   51.6680 C.3    43  MET43       0.0692
     23  N          5.3260  -13.3860   56.7750 N.3    65  ASP65      -0.1239
     24  CA         4.0040  -12.8140   56.6690 C.3    65  ASP65       0.1674
     25  C          3.6040  -12.3110   58.0550 C.2    65  ASP65       0.2266
     26  O          3.3590  -13.1110   58.9540 O.2    65  ASP65      -0.2867
     27  CB         3.0190  -13.8730   56.1510 C.3    65  ASP65       0.1410
     28  CG         1.5880  -13.3930   56.1280 C.2    65  ASP65       0.3668
     29  OD1        1.2490  -12.4380   55.3830 O.co2  65  ASP65      -0.2456
     30  OD2        0.7710  -14.0040   56.8250 O.co2  65  ASP65      -0.2456
     31  N          1.0680  -10.6330   60.5330 N.3    67  GLY67      -0.1210
     32  CA        -0.3680  -10.4160   60.6920 C.3    67  GLY67       0.1956
     33  C         -1.1820  -11.4680   59.9550 C.2    67  GLY67       0.2613
     34  O         -1.7670  -11.2100   58.8990 O.2    67  GLY67      -0.2717
     35  N         -1.2260  -12.6640   60.5130 N.am   68  THR68      -0.1938
     36  CA        -1.7990  -13.8100   59.8240 C.3    68  THR68       0.2028
     37  C         -3.2800  -13.5810   59.5480 C.2    68  THR68       0.2642
     38  O         -3.7610  -13.8510   58.4370 O.2    68  THR68      -0.2714
     39  CB        -1.6290  -15.1070   60.6720 C.3    68  THR68       0.1808
     40  OG1       -0.2600  -15.2190   61.0830 O.3    68  THR68      -0.2208
     41  CG2       -2.0600  -16.3520   59.8540 C.3    68  THR68       0.0379
     42  N         -3.9810  -13.0660   60.5590 N.am   69  PHE69      -0.1959
     43  CA        -5.4330  -13.0140   60.5760 C.3    69  PHE69       0.1771
     44  C         -5.9410  -14.4340   60.2910 C.2    69  PHE69       0.2620
     45  O         -5.5020  -15.3770   60.9600 O.2    69  PHE69      -0.2715
     46  CB        -5.9580  -11.9600   59.5860 C.3    69  PHE69       0.0574
     47  CG        -7.4000  -11.5530   59.8120 C.ar   69  PHE69      -0.0200
     48  CD1       -7.9600  -11.5360   61.0960 C.ar   69  PHE69      -0.0042
     49  CD2       -8.1860  -11.1570   58.7280 C.ar   69  PHE69      -0.0042
     50  CE1       -9.3080  -11.1350   61.2930 C.ar   69  PHE69      -0.0003
     51  CE2       -9.5120  -10.7580   58.9050 C.ar   69  PHE69      -0.0003
     52  CZ       -10.0830  -10.7570   60.1940 C.ar   69  PHE69      -0.0000
     53  N         -6.7980  -14.6130   59.2890 N.am   70  THR70      -0.1951
     54  CA        -7.2740  -15.9650   58.9320 C.3    70  THR70       0.1897
     55  C         -6.3270  -16.7490   57.9900 C.2    70  THR70       0.2313
     56  O         -6.5790  -17.9110   57.6540 O.2    70  THR70      -0.2863
     57  CB        -8.6980  -15.9500   58.3190 C.3    70  THR70       0.1794
     58  OG1       -8.6790  -15.2090   57.0870 O.3    70  THR70      -0.2208
     59  CG2       -9.7240  -15.3440   59.2860 C.3    70  THR70       0.0378
     60  N         -5.0780  -15.6260   54.8510 N.3    72  TYR72      -0.1227
     61  CA        -5.2860  -15.3540   53.4190 C.3    72  TYR72       0.1736
     62  C         -3.9620  -15.0710   52.6790 C.2    72  TYR72       0.2596
     63  O         -3.6210  -15.7550   51.7060 O.2    72  TYR72      -0.2718
     64  CB        -6.2900  -14.2080   53.1930 C.3    72  TYR72       0.0548
     65  CG        -6.7100  -14.0910   51.7270 C.ar   72  TYR72      -0.0200
     66  CD1       -7.5510  -15.0460   51.1510 C.ar   72  TYR72      -0.0009
     67  CD2       -6.2290  -13.0500   50.9150 C.ar   72  TYR72      -0.0009
     68  CE1       -7.9320  -14.9580   49.8050 C.ar   72  TYR72       0.0417
     69  CE2       -6.5860  -12.9440   49.5840 C.ar   72  TYR72       0.0417
     70  CZ        -7.4290  -13.9170   49.0230 C.ar   72  TYR72       0.1957
     71  OH        -7.7930  -13.8320   47.7020 O.3    72  TYR72      -0.2866
     72  N         -3.2250  -14.0710   53.1570 N.am   73  SER73      -0.1952
     73  CA        -1.9210  -13.7410   52.5660 C.3    73  SER73       0.1924
     74  C         -0.9440  -14.8970   52.7360 C.2    73  SER73       0.2314
     75  O         -0.2020  -15.2080   51.8100 O.2    73  SER73      -0.2863
     76  CB        -1.3430  -12.4620   53.1600 C.3    73  SER73       0.2116
     77  OG        -1.3230  -12.5500   54.5650 O.3    73  SER73      -0.2180
     78  N          3.0080  -14.6230   61.2980 N.3    90  CYS90      -0.1221
     79  CA         3.0290  -14.1410   62.7060 C.3    90  CYS90       0.1808
     80  C          1.6940  -13.5170   63.1260 C.2    90  CYS90       0.2601
     81  O          1.1190  -12.7070   62.3920 O.2    90  CYS90      -0.2717
     82  CB         4.1620  -13.1160   62.9000 C.3    90  CYS90       0.0970
     83  SG         5.8270  -13.7200   62.3910 S.3    90  CYS90      -0.0800
     84  N          1.2120  -13.8800   64.3160 N.am   91  GLU91      -0.1965
     85  CA        -0.1170  -13.4610   64.7750 C.3    91  GLU91       0.1733
     86  C         -0.1520  -13.5260   66.2970 C.2    91  GLU91       0.2616
     87  O          0.5660  -14.3300   66.8960 O.2    91  GLU91      -0.2715
     88  CB        -1.1980  -14.3870   64.1730 C.3    91  GLU91       0.0429
     89  CG        -2.6430  -14.1280   64.5920 C.3    91  GLU91       0.1163
     90  CD        -3.1110  -12.7060   64.3270 C.2    91  GLU91       0.3649
     91  OE1       -3.2340  -12.3490   63.1310 O.co2  91  GLU91      -0.2457
     92  OE2       -3.3600  -11.9550   65.3120 O.co2  91  GLU91      -0.2457
     93  N         -0.9920  -12.6950   66.9060 N.am   92  VAL92      -0.1963
     94  CA        -1.1700  -12.7260   68.3620 C.3    92  VAL92       0.1727
     95  C         -2.5130  -13.3170   68.8180 C.2    92  VAL92       0.2616
     96  O         -2.6030  -13.8650   69.9230 O.2    92  VAL92      -0.2715
     97  CB        -0.9400  -11.3410   69.0030 C.3    92  VAL92       0.0290
     98  CG1        0.5180  -10.9180   68.8230 C.3    92  VAL92       0.0023
     99  CG2       -1.9090  -10.2980   68.4310 C.3    92  VAL92       0.0023
    100  N         -3.5400  -13.2230   67.9760 N.am   93  ASP93      -0.1971
    101  CA        -4.8180  -13.8540   68.2740 C.3    93  ASP93       0.1709
    102  C         -4.8810  -15.2620   67.6710 C.2    93  ASP93       0.2293
    103  O         -4.8290  -15.4260   66.4500 O.2    93  ASP93      -0.2864
    104  CB        -5.9740  -12.9790   67.7720 C.3    93  ASP93       0.1436
    105  CG        -7.3520  -13.4510   68.2530 C.2    93  ASP93       0.3671
    106  OD1       -7.5000  -14.5790   68.7930 O.co2  93  ASP93      -0.2456
    107  OD2       -8.3180  -12.6720   68.0590 O.co2  93  ASP93      -0.2456
    108  N         -8.4770  -16.4190   64.7640 N.3    96  PRO96      -0.2116
    109  CA        -8.5710  -16.3110   63.2920 C.3    96  PRO96       0.1372
    110  C         -7.7660  -17.3410   62.4690 C.2    96  PRO96       0.2244
    111  O         -8.3380  -17.9040   61.5290 O.2    96  PRO96      -0.2868
    112  CB        -8.1350  -14.8600   63.0020 C.3    96  PRO96       0.0268
    113  CG        -8.4290  -14.1190   64.2890 C.3    96  PRO96       0.0207
    114  CD        -8.0860  -15.1260   65.3730 C.3    96  PRO96       0.0892
    115  N          4.0340  -12.0030   69.5250 N.3   119  PRO119     -0.2102
    116  CA         4.1500  -10.7150   68.8390 C.3   119  PRO119      0.1504
    117  C          5.1910  -10.8260   67.7270 C.2   119  PRO119      0.2575
    118  O          6.2160  -11.4950   67.8950 O.2   119  PRO119     -0.2718
    119  CB         4.5980   -9.7500   69.9510 C.3   119  PRO119      0.0282
    120  CG         4.0620  -10.3870   71.2170 C.3   119  PRO119      0.0208
    121  CD         4.2670  -11.8720   70.9780 C.3   119  PRO119      0.0893
    122  N          4.8750  -10.2220   66.5910 N.am  120  ALA120     -0.1980
    123  CA         5.7580  -10.2300   65.4210 C.3   120  ALA120      0.1597
    124  C          7.1660   -9.7320   65.7300 C.2   120  ALA120      0.2287
    125  O          8.1520  -10.2680   65.2120 O.2   120  ALA120     -0.2864
    126  CB         5.1180   -9.4130   64.2960 C.3   120  ALA120      0.0319
    127  N          1.7820   -6.5770   57.4690 N.3   142  ASP142     -0.1225
    128  CA         0.3540   -6.2560   57.6040 C.3   142  ASP142      0.1805
    129  C         -0.1660   -6.6310   58.9960 C.2   142  ASP142      0.2598
    130  O         -1.2370   -7.2140   59.1270 O.2   142  ASP142     -0.2718
    131  CB        -0.4760   -6.9280   56.5000 C.3   142  ASP142      0.1424
    132  CG        -1.8970   -6.3310   56.3590 C.2   142  ASP142      0.3668
    133  OD1       -2.1550   -5.1980   56.8240 O.co2 142  ASP142     -0.2456
    134  OD2       -2.7570   -7.0100   55.7560 O.co2 142  ASP142     -0.2456
    135  N          0.6050   -6.2750   60.0280 N.am  143  ALA143     -0.1966
    136  CA         0.1810   -6.4720   61.4050 C.3   143  ALA143      0.1728
    137  C         -0.3520   -5.1560   61.9840 C.2   143  ALA143      0.2616
    138  O         -1.0960   -4.4450   61.3110 O.2   143  ALA143     -0.2715
    139  CB         1.3450   -7.0450   62.2470 C.3   143  ALA143      0.0334
    140  N         -0.0070   -4.8560   63.2330 N.am  144  ASP144     -0.1971
    141  CA        -0.3700   -3.6010   63.8720 C.3   144  ASP144      0.1709
    142  C          0.4590   -2.4600   63.2840 C.2   144  ASP144      0.2293
    143  O          1.5950   -2.6620   62.8510 O.2   144  ASP144     -0.2864
    144  CB        -0.1050   -3.6820   65.3890 C.3   144  ASP144      0.1436
    145  CG         1.3140   -4.0730   65.7030 C.2   144  ASP144      0.3671
    146  OD1        1.7080   -5.2120   65.3350 O.co2 144  ASP144     -0.2456
    147  OD2        2.0470   -3.2380   66.3020 O.co2 144  ASP144     -0.2456
    148  N          3.8890   -0.7890   65.6540 N.3   147  ASN147     -0.1240
    149  CA         5.2630   -1.2970   65.5050 C.3   147  ASN147      0.1653
    150  C          5.7550   -1.3920   64.0400 C.2   147  ASN147      0.2266
    151  O          6.8020   -2.0110   63.7580 O.2   147  ASN147     -0.2867
    152  CB         5.3620   -2.6800   66.1810 C.3   147  ASN147      0.1155
    153  CG         5.2660   -2.5930   67.6940 C.2   147  ASN147      0.2627
    154  OD1        6.1810   -2.0690   68.3430 O.2   147  ASN147     -0.2716
    155  ND2        4.1450   -3.0750   68.2660 N.am  147  ASN147     -0.0877
    156  N          9.0640   -3.2310   62.3240 N.3   151  TYR151     -0.1241
    157  CA         8.8350   -4.3630   61.4180 C.3   151  TYR151      0.1605
    158  C          9.5690   -4.1600   60.1030 C.2   151  TYR151      0.2264
    159  O         10.2620   -5.0550   59.6350 O.2   151  TYR151     -0.2867
    160  CB         7.3490   -4.5610   61.1360 C.3   151  TYR151      0.0534
    161  CG         6.5090   -4.9160   62.3440 C.ar  151  TYR151     -0.0201
    162  CD1        7.0790   -5.4740   63.5010 C.ar  151  TYR151     -0.0009
    163  CD2        5.1370   -4.6860   62.3290 C.ar  151  TYR151     -0.0009
    164  CE1        6.2790   -5.7860   64.6160 C.ar  151  TYR151      0.0417
    165  CE2        4.3440   -5.0000   63.4190 C.ar  151  TYR151      0.0417
    166  CZ         4.9260   -5.5490   64.5570 C.ar  151  TYR151      0.1957
    167  OH         4.1080   -5.8240   65.6320 O.3   151  TYR151     -0.2866
    168  N         -1.7730   -1.3170   53.4970 N.3   169  ARG169     -0.1245
    169  CA        -2.5840   -0.2790   54.1480 C.3   169  ARG169      0.1563
    170  C         -1.7350    0.9510   54.5040 C.2   169  ARG169      0.2260
    171  O         -1.7620    1.4490   55.6380 O.2   169  ARG169     -0.2867
    172  CB        -3.3380   -0.8450   55.3850 C.3   169  ARG169      0.0307
    173  CG        -4.1250   -2.1540   55.0820 C.3   169  ARG169      0.0489
    174  CD        -5.0270   -2.6380   56.2360 C.3   169  ARG169      0.2205
    175  NE        -4.2800   -2.8330   57.4880 N.pl3 169  ARG169     -0.0865
    176  CZ        -4.8260   -2.8860   58.7110 C.cat 169  ARG169      0.5346
    177  NH1       -6.1390   -2.7400   58.8790 N.pl3 169  ARG169      0.1354
    178  NH2       -4.0490   -3.0650   59.7800 N.pl3 169  ARG169      0.1354
@<TRIPOS>BOND
     1    71    70    1
     2    70    69   ar
     3    70    68   ar
     4    69    67   ar
     5    68    66   ar
     6    21    20    1
     7    21    22    1
     8    20    19    1
     9    67    65   ar
    10    18    17    2
    11    17    16    1
    12    66    65   ar
    13    63    62    2
    14    65    64    1
    15    75    74    2
    16    19    16    1
    17    16    15    1
    18    73    74    1
    19    73    72    1
    20    73    76    1
    21    62    72   am
    22    62    61    1
    23    13    14    1
    24    13    12    1
    25    76    77    1
    26    64    61    1
    27    10     9    2
    28    15     9   am
    29    61    60    1
    30   168   169    1
    31    12    11    1
    32     9     8    1
    33   169   170    1
    34   169   172    1
    35   170   171    2
    36    11     8    1
    37   173   172    1
    38   173   174    1
    39     8     7    1
    40    29    28   ar
    41   134   132   ar
    42     7     3   am
    43    28    27    1
    44    28    30   ar
    45    27    24    1
    46   174   175    1
    47     4     3    2
    48     3     2    1
    49   132   131    1
    50   132   133   ar
    51   131   128    1
    52    24    23    1
    53    24    25    1
    54     1     2    1
    55     2     5    1
    56    58    57    1
    57   127   128    1
    58   175   176    2
    59   128   129    1
    60    56    55    2
    61    55    54    1
    62    25    26    2
    63    57    54    1
    64    57    59    1
    65    38    37    2
    66     5     6    1
    67   176   177    1
    68   176   178    1
    69    49    51   ar
    70    49    47   ar
    71    34    33    2
    72    51    52   ar
    73    54    53    1
    74   129   130    2
    75   129   135   am
    76    53    44   am
    77    37    36    1
    78    37    42   am
    79    46    47    1
    80    46    43    1
    81   159   158    2
    82    47    48   ar
    83    36    35    1
    84    36    39    1
    85    41    39    1
    86    33    35   am
    87    33    32    1
    88   135   136    1
    89   158   157    1
    90    52    50   ar
    91    44    43    1
    92    44    45    2
    93    31    32    1
    94    42    43    1
    95    39    40    1
    96    48    50   ar
    97   160   157    1
    98   160   161    1
    99    78    79    1
   100   138   137    2
   101   136   137    1
   102   136   139    1
   103   157   156    1
   104   111   110    2
   105   137   140   am
   106   163   161   ar
   107   163   165   ar
   108   161   162   ar
   109    83    82    1
   110    81    80    2
   111   110   109    1
   112    79    82    1
   113    79    80    1
   114   143   142    2
   115   112   109    1
   116   112   113    1
   117    80    84   am
   118    91    90   ar
   119   140   141    1
   120   142   141    1
   121   109   108    1
   122   165   166   ar
   123   162   164   ar
   124   151   150    2
   125   141   144    1
   126   150   149    1
   127    88    89    1
   128    88    85    1
   129   113   114    1
   130   126   123    1
   131    84    85    1
   132    90    89    1
   133    90    92   ar
   134   166   164   ar
   135   166   167    1
   136   108   114    1
   137    85    86    1
   138   125   124    2
   139   146   145   ar
   140   144   145    1
   141   123   124    1
   142   123   122    1
   143   149   148    1
   144   149   152    1
   145   145   147   ar
   146   152   153    1
   147    86    87    2
   148    86    93   am
   149   103   102    2
   150   122   117   am
   151    93    94    1
   152   102   101    1
   153   153   155   am
   154   153   154    2
   155   117   118    2
   156   117   116    1
   157   104   105    1
   158   104   101    1
   159   100   101    1
   160   100    95   am
   161   107   105   ar
   162   105   106   ar
   163    94    95    1
   164    94    97    1
   165    99    97    1
   166    95    96    2
   167    98    97    1
   168   116   115    1
   169   116   119    1
   170   115   121    1
   171   119   120    1
   172   121   120    1
