@<TRIPOS>MOLECULE
tmp/2avmA00.pdb
 92 86 0 0 0
SMALL
GASTEIGER

@<TRIPOS>ATOM
      1  N         11.4500   29.7630   16.6180 N.3    25  ASP25      -0.1239
      2  CA        12.2890   28.9370   17.4740 C.3    25  ASP25       0.1674
      3  C         13.1570   29.8060   18.3500 C.2    25  ASP25       0.2266
      4  O         14.2450   30.2410   17.9580 O.2    25  ASP25      -0.2867
      5  CB        13.1440   27.9810   16.6320 C.3    25  ASP25       0.1410
      6  CG        13.9080   26.9420   17.4110 C.2    25  ASP25       0.3668
      7  OD1       13.7570   26.9470   18.6640 O.co2  25  ASP25      -0.2456
      8  OD2       14.6140   26.1500   16.7430 O.co2  25  ASP25      -0.2456
      9  N         14.8440   28.8110   20.6760 N.3    27  GLY27      -0.1210
     10  CA        16.0320   28.0300   20.8790 C.3    27  GLY27       0.1956
     11  C         17.0130   28.0380   19.7460 C.2    27  GLY27       0.2612
     12  O         18.0220   27.3020   19.8270 O.2    27  GLY27      -0.2717
     13  N         16.7890   28.8330   18.7200 N.am   28  ALA28      -0.1965
     14  CA        17.6890   28.9160   17.5590 C.3    28  ALA28       0.1728
     15  C         18.3770   30.2790   17.5400 C.2    28  ALA28       0.2616
     16  O         17.6930   31.2970   17.5280 O.2    28  ALA28      -0.2715
     17  CB        16.9310   28.7000   16.2840 C.3    28  ALA28       0.0334
     18  N         19.7050   30.2790   17.4890 N.am   29  ASP29      -0.1957
     19  CA        20.4370   31.5280   17.3610 C.3    29  ASP29       0.1840
     20  C         20.1840   32.1830   16.0080 C.2    29  ASP29       0.2622
     21  O         20.1630   33.4260   15.9160 O.2    29  ASP29      -0.2715
     22  CB        21.9410   31.2980   17.5010 C.3    29  ASP29       0.1450
     23  CG        22.4090   30.8930   18.8820 C.2    29  ASP29       0.3671
     24  OD1       21.6190   30.7920   19.8400 O.co2  29  ASP29      -0.2456
     25  OD2       23.6450   30.6490   19.0060 O.co2  29  ASP29      -0.2456
     26  N         20.0430   31.3740   14.9850 N.am   30  ASP30      -0.1971
     27  CA        20.0480   31.7580   13.5790 C.3    30  ASP30       0.1709
     28  C         18.7460   31.3140   12.9070 C.2    30  ASP30       0.2293
     29  O         18.0570   30.4310   13.3830 O.2    30  ASP30      -0.2864
     30  CB        21.2080   31.0950   12.8440 C.3    30  ASP30       0.1436
     31  CG        22.5730   31.3080   13.4250 C.2    30  ASP30       0.3671
     32  OD1       22.8190   32.4260   13.9540 O.co2  30  ASP30      -0.2456
     33  OD2       23.4520   30.4090   13.3860 O.co2  30  ASP30      -0.2456
     34  N         17.1580   29.5580    9.5890 N.3    32  VAL32      -0.1245
     35  CA        17.6000   28.4760    8.7150 C.3    32  VAL32       0.1561
     36  C         16.4630   28.0920    7.8060 C.2    32  VAL32       0.2260
     37  O         15.4090   27.6780    8.2860 O.2    32  VAL32      -0.2867
     38  CB        18.1150   27.2650    9.5150 C.3    32  VAL32       0.0252
     39  CG1       18.8420   26.3180    8.5750 C.3    32  VAL32       0.0019
     40  CG2       18.9530   27.6810   10.7230 C.3    32  VAL32       0.0019
     41  N         28.8740   27.4670    6.6630 N.3    45  LYS45      -0.1241
     42  CA        28.7510   27.4070    8.1150 C.3    45  LYS45       0.1604
     43  C         28.2840   26.0110    8.4780 C.2    45  LYS45       0.2264
     44  O         27.5590   25.3870    7.7170 O.2    45  LYS45      -0.2867
     45  CB        27.7410   28.4700    8.6410 C.3    45  LYS45       0.0527
     46  CG        27.7350   28.7210   10.1410 C.2    45  LYS45      -0.0273
     47  CD        26.7750   29.7580   10.6180 C.2    45  LYS45      -0.0103
     48  CE        26.6690   30.0030   12.1070 C.3    45  LYS45       0.1350
     49  NZ        27.6100   31.0990   12.3890 N.3    45  LYS45      -0.1262
     50  N         26.1200   24.2300   11.5350 N.3    47  ILE47      -0.1231
     51  CA        25.2020   24.5270   12.6410 C.3    47  ILE47       0.1692
     52  C         24.7280   23.2200   13.2470 C.2    47  ILE47       0.2593
     53  O         24.4510   22.2450   12.5310 O.2    47  ILE47      -0.2718
     54  CB        24.0240   25.3960   12.1920 C.3    47  ILE47       0.0266
     55  CG1       23.2620   24.8060   11.0070 C.3    47  ILE47       0.0019
     56  CG2       24.4990   26.8110   11.9340 C.3    47  ILE47       0.0020
     57  CD1       21.9800   25.5130   10.6710 C.3    47  ILE47       0.0001
     58  N         24.6080   23.1950   14.5530 N.am   48  GLY48      -0.1942
     59  CA        24.3000   22.0040   15.2910 C.3    48  GLY48       0.2014
     60  C         23.1350   22.1160   16.2410 C.2    48  GLY48       0.2639
     61  O         22.7060   23.1820   16.6420 O.2    48  GLY48      -0.2714
     62  N         22.6680   20.9640   16.6150 N.am   49  GLY49      -0.1939
     63  CA        21.5840   20.8170   17.5740 C.3    49  GLY49       0.2014
     64  C         21.3230   19.3730   17.8030 C.2    49  GLY49       0.2638
     65  O         22.2250   18.5560   17.7260 O.2    49  GLY49      -0.2714
     66  N         20.0660   19.0090   18.1060 N.am   50  ILE50      -0.1977
     67  CA        19.7650   17.5830   18.3150 C.3    50  ILE50       0.1596
     68  C         20.0270   16.8820   17.0170 C.2    50  ILE50       0.2287
     69  O         19.6120   17.3020   15.9290 O.2    50  ILE50      -0.2864
     70  CB        18.3750   17.4220   18.8900 C.3    50  ILE50       0.0276
     71  CG1       18.3290   17.8250   20.4140 C.3    50  ILE50       0.0022
     72  CG2       17.8000   15.9980   18.6430 C.3    50  ILE50       0.0022
     73  CD1       16.9610   18.0560   20.9320 C.3    50  ILE50       0.0001
     74  N         25.1790   18.1090   13.3820 N.3    53  PHE53      -0.1241
     75  CA        25.4210   19.2930   12.5700 C.3    53  PHE53       0.1605
     76  C         25.0100   19.1000   11.1160 C.2    53  PHE53       0.2264
     77  O         25.0560   17.9870   10.5810 O.2    53  PHE53      -0.2867
     78  CB        26.8700   19.7080   12.6000 C.3    53  PHE53       0.0534
     79  CG        27.3550   20.2770   13.9200 C.ar   53  PHE53      -0.0203
     80  CD1       27.6060   19.4660   15.0240 C.ar   53  PHE53      -0.0042
     81  CD2       27.5430   21.6330   14.0620 C.ar   53  PHE53      -0.0042
     82  CE1       27.9930   20.0380   16.2000 C.ar   53  PHE53      -0.0003
     83  CE2       27.9480   22.1960   15.2590 C.ar   53  PHE53      -0.0003
     84  CZ        28.1880   21.3960   16.3220 C.ar   53  PHE53      -0.0000
     85  N         13.1440   27.5510    9.9910 N.3    84  ILE84      -0.1245
     86  CA        13.2640   28.0570   11.3470 C.3    84  ILE84       0.1561
     87  C         13.5480   29.5480   11.3310 C.2    84  ILE84       0.2260
     88  O         14.4930   29.9940   10.6810 O.2    84  ILE84      -0.2867
     89  CB        14.4340   27.3230   12.0520 C.3    84  ILE84       0.0252
     90  CG1       14.1100   25.8480   12.2570 C.3    84  ILE84       0.0019
     91  CG2       14.8350   28.0260   13.3380 C.3    84  ILE84       0.0019
     92  CD1       15.3280   24.9690   12.5230 C.3    84  ILE84       0.0001
@<TRIPOS>BOND
     1    41    42    1
     2    44    43    2
     3    36    37    2
     4    36    35    1
     5    42    43    1
     6    42    45    1
     7    39    38    1
     8    45    46    1
     9    35    38    1
    10    35    34    1
    11    38    40    1
    12    85    86    1
    13    46    47    2
    14    77    76    2
    15    47    48    1
    16    57    55    1
    17    88    87    2
    18    55    54    1
    19    76    75    1
    20    87    86    1
    21    86    89    1
    22    50    51    1
    23    56    54    1
    24    89    90    1
    25    89    91    1
    26    48    49    1
    27    54    51    1
    28    90    92    1
    29    53    52    2
    30    75    78    1
    31    75    74    1
    32    78    79    1
    33    51    52    1
    34    30    31    1
    35    30    27    1
    36    28    29    2
    37    28    27    1
    38    52    58   am
    39    33    31   ar
    40    31    32   ar
    41    27    26    1
    42    79    81   ar
    43    79    80   ar
    44    81    83   ar
    45    58    59    1
    46    26    20   am
    47    80    82   ar
    48    83    84   ar
    49    59    60    1
    50    21    20    2
    51    69    68    2
    52    20    19    1
    53    82    84   ar
    54    60    62   am
    55    60    61    2
    56    17    14    1
    57    62    63    1
    58     1     2    1
    59     5     6    1
    60     5     2    1
    61     8     6   ar
    62    68    67    1
    63    19    18    1
    64    19    22    1
    65     6     7   ar
    66     2     3    1
    67    18    15   am
    68    22    23    1
    69    16    15    2
    70    15    14    1
    71    14    13    1
    72    63    64    1
    73    65    64    2
    74    64    66   am
    75     4     3    2
    76    66    67    1
    77    67    70    1
    78    72    70    1
    79    13    11   am
    80    23    25   ar
    81    23    24   ar
    82    70    71    1
    83    11    12    2
    84    11    10    1
    85    71    73    1
    86     9    10    1
