@<TRIPOS>MOLECULE
tmp/2avmB00.pdb
 77 71 0 0 0
SMALL
GASTEIGER

@<TRIPOS>ATOM
      1  N         20.4650   34.2930   24.3920 N.3     8  ARG8       -0.1245
      2  CA        19.7140   33.0520   24.5560 C.3     8  ARG8        0.1563
      3  C         18.7920   33.1280   25.7650 C.2     8  ARG8        0.2260
      4  O         19.2510   33.6090   26.8280 O.2     8  ARG8       -0.2867
      5  CB        20.6660   31.8640   24.7150 C.3     8  ARG8        0.0307
      6  CG        21.5150   31.5690   23.5050 C.3     8  ARG8        0.0489
      7  CD        22.1380   30.1820   23.5230 C.3     8  ARG8        0.2205
      8  NE        23.0730   29.9860   24.5700 N.pl3   8  ARG8       -0.0865
      9  CZ        23.5660   28.9060   25.1610 C.cat   8  ARG8        0.5346
     10  NH1       23.2320   27.6660   24.8270 N.pl3   8  ARG8        0.1354
     11  NH2       24.4180   29.1100   26.1300 N.pl3   8  ARG8        0.1354
     12  N         17.2170   26.1790   28.2480 N.3    23  LEU23      -0.1245
     13  CA        16.8210   27.1180   27.2270 C.3    23  LEU23       0.1561
     14  C         15.3380   27.0720   26.9760 C.2    23  LEU23       0.2260
     15  O         14.8290   25.9860   26.6790 O.2    23  LEU23      -0.2867
     16  CB        17.6340   26.7100   25.9840 C.3    23  LEU23       0.0270
     17  CG        17.5600   27.5440   24.7450 C.3    23  LEU23       0.0019
     18  CD1       18.1550   28.9170   24.9540 C.3    23  LEU23       0.0001
     19  CD2       18.3090   26.8210   23.6360 C.3    23  LEU23       0.0001
     20  N         12.4490   27.1100   24.7780 N.3    25  ASP25      -0.1239
     21  CA        12.5090   26.7280   23.3850 C.3    25  ASP25       0.1674
     22  C         11.1470   26.5320   22.7340 C.2    25  ASP25       0.2266
     23  O         10.5580   25.4330   22.7730 O.2    25  ASP25      -0.2867
     24  CB        13.3330   25.4700   23.2570 C.3    25  ASP25       0.1410
     25  CG        13.7420   25.2250   21.9030 C.2    25  ASP25       0.3668
     26  OD1       13.2170   25.9720   20.9630 O.co2  25  ASP25      -0.2456
     27  OD2       14.5380   24.3400   21.5980 O.co2  25  ASP25      -0.2456
     28  N         10.5010   26.2960   19.7200 N.3    27  GLY27      -0.1210
     29  CA        10.6900   25.3730   18.6100 C.3    27  GLY27       0.1956
     30  C         10.8480   23.9080   19.0010 C.2    27  GLY27       0.2611
     31  O         11.1170   23.0970   18.1300 O.2    27  GLY27      -0.2717
     32  N         10.6580   23.5950   20.2870 N.am   28  ALA28      -0.1979
     33  CA        10.7300   22.2340   20.7940 C.3    28  ALA28       0.1597
     34  C          9.3410   21.7900   21.2210 C.2    28  ALA28       0.2287
     35  O          8.7040   22.4380   22.0320 O.2    28  ALA28      -0.2864
     36  CB        11.6860   22.1490   21.9660 C.3    28  ALA28       0.0319
     37  N         15.9980   16.7030   15.5000 N.3    49  GLY49      -0.1210
     38  CA        16.4570   18.0630   15.5490 C.3    49  GLY49       0.1956
     39  C         17.0880   18.4590   14.2440 C.2    49  GLY49       0.2611
     40  O         16.9320   17.7780   13.2020 O.2    49  GLY49      -0.2717
     41  N         17.8380   19.5260   14.2320 N.am   50  ILE50      -0.1979
     42  CA        18.4740   20.0510   13.0590 C.3    50  ILE50       0.1595
     43  C         19.3470   19.0440   12.3700 C.2    50  ILE50       0.2287
     44  O         19.4300   19.0250   11.1170 O.2    50  ILE50      -0.2864
     45  CB        19.3870   21.2560   13.3810 C.3    50  ILE50       0.0276
     46  CG1       20.2720   21.5960   12.1650 C.3    50  ILE50       0.0022
     47  CG2       20.3100   21.0650   14.5540 C.3    50  ILE50       0.0022
     48  CD1       20.4490   23.0840   12.2370 C.3    50  ILE50       0.0001
     49  N         21.1820   15.4020   24.3670 N.3    80  THR80      -0.1204
     50  CA        20.9220   16.7290   23.7930 C.3    80  THR80       0.1979
     51  C         22.1210   17.6000   24.0320 C.2    80  THR80       0.2460
     52  O         22.7270   17.5470   25.1120 O.2    80  THR80      -0.2732
     53  CB        19.6550   17.3530   24.3940 C.3    80  THR80       0.1783
     54  OG1       19.4790   18.6300   23.7950 O.3    80  THR80      -0.2211
     55  CG2       19.7160   17.4770   25.8920 C.3    80  THR80       0.0376
     56  N         22.4840   18.4530   23.0870 N.am   81  PRO81      -0.2717
     57  CA        23.5490   19.4190   23.3050 C.3    81  PRO81       0.1535
     58  C         23.3380   20.3840   24.4380 C.2    81  PRO81       0.2598
     59  O         24.3030   20.9000   25.0050 O.2    81  PRO81      -0.2715
     60  CB        23.6340   20.1850   21.9920 C.3    81  PRO81       0.0310
     61  CG        23.2080   19.1910   20.9690 C.3    81  PRO81       0.0237
     62  CD        22.0670   18.4700   21.6560 C.3    81  PRO81       0.0939
     63  N         22.0820   20.7370   24.7040 N.am   82  VAL82      -0.1978
     64  CA        21.6520   21.7660   25.6250 C.3    82  VAL82       0.1596
     65  C         20.3540   21.3180   26.2740 C.2    82  VAL82       0.2287
     66  O         19.5020   20.7380   25.5940 O.2    82  VAL82      -0.2864
     67  CB        21.3730   23.0910   24.7950 C.3    82  VAL82       0.0276
     68  CG1       20.5390   24.1460   25.3990 C.3    82  VAL82       0.0022
     69  CG2       22.7650   23.6210   24.3720 C.3    82  VAL82       0.0022
     70  N         16.6840   21.8210   27.1280 N.3    84  ILE84      -0.1245
     71  CA        15.6510   22.6410   26.4870 C.3    84  ILE84       0.1561
     72  C         14.3280   22.3950   27.1720 C.2    84  ILE84       0.2260
     73  O         13.9110   21.2550   27.4550 O.2    84  ILE84      -0.2867
     74  CB        15.7550   22.4170   24.9750 C.3    84  ILE84       0.0252
     75  CG1       16.8310   21.4750   24.4500 C.3    84  ILE84       0.0019
     76  CG2       16.2790   23.7340   24.3870 C.3    84  ILE84       0.0019
     77  CD1       16.6500   21.0250   23.0320 C.3    84  ILE84       0.0001
@<TRIPOS>BOND
     1    44    43    2
     2    46    48    1
     3    46    45    1
     4    43    42    1
     5    42    45    1
     6    42    41    1
     7    40    39    2
     8    45    47    1
     9    41    39   am
    10    39    38    1
    11    37    38    1
    12    31    30    2
    13    29    30    1
    14    29    28    1
    15    30    32   am
    16    32    33    1
    17    33    34    1
    18    33    36    1
    19    26    25   ar
    20    61    62    1
    21    61    60    1
    22    34    35    2
    23    27    25   ar
    24    62    56    1
    25    25    24    1
    26    60    57    1
    27    22    23    2
    28    22    21    1
    29    77    75    1
    30    56    57    1
    31    56    51   am
    32    24    21    1
    33    57    58    1
    34    21    20    1
    35     6     7    1
    36     6     5    1
    37     7     8    1
    38    19    17    1
    39    50    51    1
    40    50    49    1
    41    50    53    1
    42    54    53    1
    43    51    52    2
    44    69    67    1
    45    76    74    1
    46     1     2    1
    47    53    55    1
    48    58    63   am
    49    58    59    2
    50    75    74    1
    51     2     5    1
    52     2     3    1
    53     8     9    2
    54    63    64    1
    55    17    18    1
    56    17    16    1
    57    67    68    1
    58    67    64    1
    59    10     9    1
    60    74    71    1
    61     9    11    1
    62    66    65    2
    63    64    65    1
    64     3     4    2
    65    16    13    1
    66    71    70    1
    67    71    72    1
    68    15    14    2
    69    14    13    1
    70    72    73    2
    71    13    12    1
