@<TRIPOS>MOLECULE
tmp/2avnB00.pdb
 199 197 0 0 0
SMALL
GASTEIGER

@<TRIPOS>ATOM
      1  N         19.0940   54.5470  -29.0060 N.3     5  SER5       -0.1202
      2  CA        20.0770   53.6420  -29.5750 C.3     5  SER5        0.2020
      3  C         20.3650   53.8530  -31.0870 C.2     5  SER5        0.2618
      4  O         21.5300   54.0300  -31.5070 O.2     5  SER5       -0.2717
      5  CB        19.5800   52.2150  -29.3560 C.3     5  SER5        0.2103
      6  OG        20.5510   51.3100  -29.7850 O.3     5  SER5       -0.2182
      7  N         19.3130   53.8360  -31.8990 N.am    6  TRP6       -0.1975
      8  CA        19.4960   53.9230  -33.3470 C.3     6  TRP6        0.1640
      9  C         19.9950   55.2990  -33.8170 C.2     6  TRP6        0.2290
     10  O         20.5350   55.4140  -34.9220 O.2     6  TRP6       -0.2864
     11  CB        18.2260   53.5310  -34.0960 C.3     6  TRP6        0.0576
     12  CG        17.0610   54.3760  -33.8110 C.ar    6  TRP6        0.0006
     13  CD1       16.7140   55.5740  -34.4170 C.ar    6  TRP6        0.0946
     14  CD2       16.0580   54.1060  -32.8400 C.ar    6  TRP6        0.0152
     15  NE1       15.5540   56.0590  -33.8530 N.ar    6  TRP6       -0.2442
     16  CE2       15.1300   55.1840  -32.8840 C.ar    6  TRP6        0.0810
     17  CE3       15.8500   53.0560  -31.9180 C.ar    6  TRP6        0.0012
     18  CZ2       13.9900   55.2290  -32.0460 C.ar    6  TRP6        0.0191
     19  CZ3       14.7240   53.1100  -31.0570 C.ar    6  TRP6        0.0001
     20  CH2       13.8140   54.1850  -31.1280 C.ar    6  TRP6        0.0015
     21  N         23.7590   55.0120  -33.4640 N.3     9  TYR9       -0.1241
     22  CA        24.2510   54.2430  -34.5940 C.3     9  TYR9        0.1605
     23  C         24.1590   55.0220  -35.8800 C.2     9  TYR9        0.2264
     24  O         24.9950   54.8460  -36.7230 O.2     9  TYR9       -0.2867
     25  CB        23.5880   52.8740  -34.6660 C.3     9  TYR9        0.0534
     26  CG        24.1100   51.9910  -33.5550 C.ar    9  TYR9       -0.0201
     27  CD1       25.4050   51.4960  -33.5830 C.ar    9  TYR9       -0.0009
     28  CD2       23.3440   51.7150  -32.4380 C.ar    9  TYR9       -0.0009
     29  CE1       25.9240   50.7390  -32.5120 C.ar    9  TYR9        0.0417
     30  CE2       23.8320   50.9650  -31.3940 C.ar    9  TYR9        0.0417
     31  CZ        25.1270   50.4790  -31.4300 C.ar    9  TYR9        0.1957
     32  OH        25.6050   49.6960  -30.3820 O.3     9  TYR9       -0.2866
     33  N         31.6730   52.0870  -37.8190 N.3    16  TYR16      -0.1241
     34  CA        31.3550   50.9320  -36.9560 C.3    16  TYR16       0.1605
     35  C         32.2250   49.6940  -37.2200 C.2    16  TYR16       0.2264
     36  O         32.7170   49.0780  -36.2750 O.2    16  TYR16      -0.2867
     37  CB        29.8790   50.5840  -37.0400 C.3    16  TYR16       0.0534
     38  CG        29.4460   49.3910  -36.2020 C.ar   16  TYR16      -0.0201
     39  CD1       29.4680   48.1140  -36.7360 C.ar   16  TYR16      -0.0009
     40  CD2       28.9780   49.5390  -34.9060 C.ar   16  TYR16      -0.0009
     41  CE1       29.0620   47.0120  -36.0030 C.ar   16  TYR16       0.0417
     42  CE2       28.5400   48.4350  -34.1610 C.ar   16  TYR16       0.0417
     43  CZ        28.5850   47.1780  -34.7180 C.ar   16  TYR16       0.1957
     44  OH        28.1540   46.0590  -34.0430 O.3    16  TYR16      -0.2866
     45  N         34.0020   37.0140  -32.8340 N.3    28  HIS28      -0.1241
     46  CA        33.2500   36.7860  -34.0740 C.3    28  HIS28       0.1621
     47  C         33.4690   35.3640  -34.5380 C.2    28  HIS28       0.2264
     48  O         32.5620   34.7290  -35.0520 O.2    28  HIS28      -0.2867
     49  CB        33.6360   37.7950  -35.1950 C.3    28  HIS28       0.0745
     50  CG        33.2400   39.2180  -34.9010 C.ar   28  HIS28       0.0817
     51  ND1       33.9750   40.3060  -35.3370 N.ar   28  HIS28      -0.2268
     52  CD2       32.1970   39.7290  -34.1920 C.ar   28  HIS28       0.1154
     53  CE1       33.3970   41.4230  -34.9170 C.ar   28  HIS28       0.1986
     54  NE2       32.3190   41.1020  -34.2160 N.ar   28  HIS28      -0.2212
     55  N         17.8180   38.8730  -39.7600 N.3    47  ASP47      -0.1225
     56  CA        18.9210   39.4910  -39.0230 C.3    47  ASP47       0.1805
     57  C         18.4240   40.7850  -38.3580 C.2    47  ASP47       0.2598
     58  O         18.4350   41.8520  -38.9640 O.2    47  ASP47      -0.2718
     59  CB        20.0940   39.8200  -39.9520 C.3    47  ASP47       0.1424
     60  CG        21.3820   40.1990  -39.1840 C.2    47  ASP47       0.3668
     61  OD1       21.3910   40.1430  -37.9260 O.co2  47  ASP47      -0.2456
     62  OD2       22.3980   40.5190  -39.8520 O.co2  47  ASP47      -0.2456
     63  N         17.9650   40.6610  -37.1250 N.am   48  LEU48      -0.1966
     64  CA        17.2530   41.7320  -36.4660 C.3    48  LEU48       0.1728
     65  C         18.2520   42.6650  -35.7500 C.2    48  LEU48       0.2617
     66  O         19.0510   42.2020  -34.9260 O.2    48  LEU48      -0.2715
     67  CB        16.2440   41.1200  -35.4870 C.3    48  LEU48       0.0311
     68  CG        15.4710   42.0850  -34.6020 C.3    48  LEU48       0.0022
     69  CD1       14.5340   42.9510  -35.4140 C.3    48  LEU48       0.0001
     70  CD2       14.6970   41.3010  -33.5860 C.3    48  LEU48       0.0001
     71  N         18.2110   43.9560  -36.0910 N.am   49  GLY49      -0.1940
     72  CA        19.2560   44.9030  -35.6590 C.3    49  GLY49       0.2014
     73  C         20.5890   44.4810  -36.2210 C.2    49  GLY49       0.2639
     74  O         21.6200   44.5370  -35.5360 O.2    49  GLY49      -0.2714
     75  N         20.5660   44.0050  -37.4620 N.am   50  GLY50      -0.1939
     76  CA        21.7690   43.4520  -38.1330 C.3    50  GLY50       0.2014
     77  C         22.8370   44.4620  -38.5190 C.2    50  GLY50       0.2639
     78  O         23.9000   44.0870  -39.0290 O.2    50  GLY50      -0.2714
     79  N         22.5610   45.7430  -38.2810 N.am   51  GLY51      -0.1939
     80  CA        23.5660   46.7760  -38.4120 C.3    51  GLY51       0.2014
     81  C         24.1350   46.9210  -39.8040 C.2    51  GLY51       0.2639
     82  O         23.3930   47.1860  -40.7640 O.2    51  GLY51      -0.2714
     83  N         25.4550   46.7920  -39.8960 N.am   52  THR52      -0.1950
     84  CA        26.2060   46.8870  -41.1580 C.3    52  THR52       0.1897
     85  C         26.2840   45.5320  -41.8970 C.2    52  THR52       0.2313
     86  O         27.0080   45.4010  -42.8820 O.2    52  THR52      -0.2863
     87  CB        27.6380   47.4080  -40.9040 C.3    52  THR52       0.1794
     88  OG1       28.3780   46.4600  -40.1030 O.3    52  THR52      -0.2208
     89  CG2       27.5940   48.7640  -40.1880 C.3    52  THR52       0.0378
     90  N         27.2910   42.3280  -41.0100 N.3    54  LYS54      -0.1231
     91  CA        28.3440   41.3450  -40.8010 C.3    54  LYS54       0.1693
     92  C         27.7750   39.9290  -40.8850 C.2    54  LYS54       0.2592
     93  O         28.2730   39.1010  -41.6580 O.2    54  LYS54      -0.2718
     94  CB        29.0160   41.6060  -39.4570 C.3    54  LYS54       0.0285
     95  CG        29.8190   40.4800  -38.8270 C.3    54  LYS54       0.0035
     96  CD        31.1050   40.1750  -39.5810 C.3    54  LYS54       0.0206
     97  CE        31.9910   39.1400  -38.8390 C.3    54  LYS54       0.1093
     98  NZ        32.5070   38.0480  -39.7590 N.3    54  LYS54      -0.1314
     99  N         26.7110   39.6660  -40.1400 N.am   55  TRP55      -0.1976
    100  CA        26.1510   38.3120  -40.0800 C.3    55  TRP55       0.1640
    101  C         25.1790   38.0160  -41.2300 C.2    55  TRP55       0.2290
    102  O         25.0870   36.8770  -41.6570 O.2    55  TRP55      -0.2864
    103  CB        25.5360   38.0290  -38.7160 C.3    55  TRP55       0.0576
    104  CG        26.5510   38.1530  -37.6420 C.ar   55  TRP55       0.0006
    105  CD1       26.6130   39.1090  -36.6620 C.ar   55  TRP55       0.0946
    106  CD2       27.7010   37.3350  -37.4730 C.ar   55  TRP55       0.0152
    107  NE1       27.7300   38.9210  -35.8820 N.ar   55  TRP55      -0.2442
    108  CE2       28.4170   37.8400  -36.3570 C.ar   55  TRP55       0.0810
    109  CE3       28.1940   36.2050  -38.1440 C.ar   55  TRP55       0.0012
    110  CZ2       29.6050   37.2630  -35.9030 C.ar   55  TRP55       0.0191
    111  CZ3       29.3810   35.6420  -37.7070 C.ar   55  TRP55       0.0001
    112  CH2       30.0730   36.1680  -36.5840 C.ar   55  TRP55       0.0015
    113  N         16.8400   46.8810  -39.4170 N.3    70  ASP70      -0.1225
    114  CA        17.4660   47.7660  -38.4490 C.3    70  ASP70       0.1790
    115  C         16.7740   49.1270  -38.5230 C.2    70  ASP70       0.2440
    116  O         16.4480   49.6000  -39.6080 O.2    70  ASP70      -0.2733
    117  CB        18.9640   47.8800  -38.7940 C.3    70  ASP70       0.1423
    118  CG        19.8170   48.3450  -37.6260 C.2    70  ASP70       0.3668
    119  OD1       19.7200   49.5470  -37.2930 O.co2  70  ASP70      -0.2456
    120  OD2       20.6180   47.5190  -37.0970 O.co2  70  ASP70      -0.2456
    121  N         16.5220   49.7630  -37.3720 N.am   71  PRO71      -0.2718
    122  CA        15.9700   51.1250  -37.3870 C.3    71  PRO71       0.1535
    123  C         16.9380   52.2490  -37.7990 C.2    71  PRO71       0.2599
    124  O         16.4850   53.3800  -38.0230 O.2    71  PRO71      -0.2715
    125  CB        15.5160   51.3290  -35.9380 C.3    71  PRO71       0.0310
    126  CG        16.4800   50.4860  -35.1510 C.3    71  PRO71       0.0237
    127  CD        16.7240   49.2700  -35.9920 C.3    71  PRO71       0.0939
    128  N         18.2350   51.9720  -37.8910 N.am   72  SER72      -0.1950
    129  CA        19.2360   52.9920  -38.3040 C.3    72  SER72       0.1924
    130  C         19.3910   53.0010  -39.8010 C.2    72  SER72       0.2314
    131  O         19.9140   52.0390  -40.3610 O.2    72  SER72      -0.2863
    132  CB        20.6290   52.7190  -37.6710 C.3    72  SER72       0.2116
    133  OG        21.6380   53.5520  -38.2510 O.3    72  SER72      -0.2180
    134  N         13.2010   49.0170  -39.7880 N.3    89  ALA89      -0.1231
    135  CA        12.2060   48.8320  -38.7330 C.3    89  ALA89       0.1694
    136  C         12.8840   48.5380  -37.3780 C.2    89  ALA89       0.2592
    137  O         14.0780   48.1670  -37.3150 O.2    89  ALA89      -0.2718
    138  CB        11.2530   47.6970  -39.0980 C.3    89  ALA89       0.0304
    139  N         12.0710   48.6810  -36.3320 N.am   90  LYS90      -0.1966
    140  CA        12.3870   48.2940  -34.9770 C.3    90  LYS90       0.1728
    141  C         11.8360   46.9100  -34.6480 C.2    90  LYS90       0.2616
    142  O         10.7840   46.5050  -35.1250 O.2    90  LYS90      -0.2715
    143  CB        11.7420   49.2760  -34.0010 C.3    90  LYS90       0.0311
    144  CG        12.1880   50.7000  -34.1650 C.3    90  LYS90       0.0038
    145  CD        11.3440   51.6500  -33.3480 C.3    90  LYS90       0.0206
    146  CE        11.6810   51.5640  -31.8820 C.3    90  LYS90       0.1093
    147  NZ        11.0600   52.6700  -31.0700 N.3    90  LYS90      -0.1314
    148  N         12.5110   46.2270  -33.7450 N.am   91  ALA91      -0.1963
    149  CA        12.0690   44.9280  -33.2640 C.3    91  ALA91       0.1728
    150  C         10.6600   44.9460  -32.6410 C.2    91  ALA91       0.2616
    151  O          9.9560   43.9480  -32.6950 O.2    91  ALA91      -0.2715
    152  CB        13.0560   44.4300  -32.2580 C.3    91  ALA91       0.0334
    153  N         10.2740   46.0690  -32.0370 N.am   92  GLU92      -0.1977
    154  CA         8.9710   46.2160  -31.3960 C.3    92  GLU92       0.1602
    155  C          7.8110   46.2390  -32.3820 C.2    92  GLU92       0.2287
    156  O          6.6620   46.1690  -31.9690 O.2    92  GLU92      -0.2864
    157  CB         8.9040   47.5250  -30.5750 C.3    92  GLU92       0.0415
    158  CG         9.8220   47.5490  -29.3470 C.3    92  GLU92       0.1163
    159  CD        11.2500   48.0640  -29.6050 C.2    92  GLU92       0.3649
    160  OE1       11.7200   48.0910  -30.7580 O.co2  92  GLU92      -0.2457
    161  OE2       11.9130   48.4450  -28.6240 O.co2  92  GLU92      -0.2457
    162  N         22.0410   39.6280  -32.6810 N.3   107  LEU107     -0.1231
    163  CA        23.4430   39.5910  -32.2720 C.3   107  LEU107      0.1693
    164  C         23.9780   41.0090  -32.0300 C.2   107  LEU107      0.2592
    165  O         23.3650   41.9780  -32.4340 O.2   107  LEU107     -0.2718
    166  CB        24.2710   38.8680  -33.3370 C.3   107  LEU107      0.0284
    167  CG        23.9040   37.4010  -33.5970 C.3   107  LEU107      0.0019
    168  CD1       24.5820   36.9090  -34.8450 C.3   107  LEU107      0.0001
    169  CD2       24.2950   36.5080  -32.4530 C.3   107  LEU107      0.0001
    170  N         25.1310   41.1150  -31.3740 N.am  108  GLY108     -0.1957
    171  CA        25.7110   42.4060  -30.9870 C.3   108  GLY108      0.1869
    172  C         24.8660   43.2060  -30.0090 C.2   108  GLY108      0.2309
    173  O         24.8400   44.4370  -30.0630 O.2   108  GLY108     -0.2863
    174  N         21.6730   43.6540  -29.4010 N.3   110  VAL110     -0.1245
    175  CA        20.4450   44.2990  -29.8390 C.3   110  VAL110      0.1561
    176  C         19.3580   44.3210  -28.7570 C.2   110  VAL110      0.2260
    177  O         18.7360   45.3700  -28.4950 O.2   110  VAL110     -0.2867
    178  CB        19.9220   43.5910  -31.1300 C.3   110  VAL110      0.0252
    179  CG1       18.4930   43.9970  -31.4520 C.3   110  VAL110      0.0019
    180  CG2       20.8340   43.9210  -32.3180 C.3   110  VAL110      0.0019
    181  N         19.4200   46.7230  -26.1100 N.3   113  TYR113     -0.1227
    182  CA        19.1670   48.1340  -26.5360 C.3   113  TYR113      0.1736
    183  C         17.7190   48.4790  -26.8340 C.2   113  TYR113      0.2595
    184  O         17.3260   49.6460  -26.7400 O.2   113  TYR113     -0.2718
    185  CB        19.9570   48.4850  -27.7830 C.3   113  TYR113      0.0548
    186  CG        21.4180   48.2030  -27.7110 C.ar  113  TYR113     -0.0200
    187  CD1       22.0940   48.2220  -26.4950 C.ar  113  TYR113     -0.0009
    188  CD2       22.1390   47.9350  -28.8640 C.ar  113  TYR113     -0.0009
    189  CE1       23.4550   47.9820  -26.4210 C.ar  113  TYR113      0.0417
    190  CE2       23.5210   47.6760  -28.8040 C.ar  113  TYR113      0.0417
    191  CZ        24.1700   47.7120  -27.5750 C.ar  113  TYR113      0.1957
    192  OH        25.5140   47.4560  -27.4780 O.3   113  TYR113     -0.2866
    193  N         16.9410   47.4880  -27.2470 N.am  114  VAL114     -0.1980
    194  CA        15.5200   47.7070  -27.4990 C.3   114  VAL114      0.1595
    195  C         14.8580   48.3080  -26.2560 C.2   114  VAL114      0.2287
    196  O         15.1190   47.8770  -25.1380 O.2   114  VAL114     -0.2864
    197  CB        14.7560   46.4150  -27.9980 C.3   114  VAL114      0.0276
    198  CG1       15.5160   45.7750  -29.1480 C.3   114  VAL114      0.0022
    199  CG2       14.5290   45.4370  -26.8840 C.3   114  VAL114      0.0022
@<TRIPOS>BOND
     1    86    85    2
     2    85    84    1
     3    93    92    2
     4   102   101    2
     5   101   100    1
     6    84    87    1
     7    84    83    1
     8    90    91    1
     9    87    89    1
    10    87    88    1
    11    92    91    1
    12    92    99   am
    13    91    94    1
    14    82    81    2
    15   131   130    2
    16    99   100    1
    17   100   103    1
    18    59    60    1
    19    59    56    1
    20    83    81   am
    21    62    60   ar
    22    81    80    1
    23   130   129    1
    24   134   135    1
    25    55    56    1
    26    98    97    1
    27   116   115    2
    28    96    97    1
    29    96    95    1
    30    94    95    1
    31   113   114    1
    32    60    61   ar
    33   138   135    1
    34    78    77    2
    35    56    57    1
    36    58    57    2
    37   117   114    1
    38   117   118    1
    39   135   136    1
    40   103   104    1
    41   115   114    1
    42   115   121   am
    43    77    79   am
    44    77    76    1
    45    80    79    1
    46    57    63   am
    47   129   128    1
    48   129   132    1
    49   133   132    1
    50   109   111   ar
    51   109   106   ar
    52    76    75    1
    53   124   123    2
    54   128   123   am
    55    33    34    1
    56   123   122    1
    57   111   112   ar
    58   104   106   ar
    59   104   105   ar
    60   118   119   ar
    61   118   120   ar
    62   106   108   ar
    63    75    73   am
    64   122   121    1
    65   122   125    1
    66   136   137    2
    67   136   139   am
    68   121   127    1
    69    35    34    1
    70    35    36    2
    71    63    64    1
    72    37    34    1
    73    37    38    1
    74    39    38   ar
    75    39    41   ar
    76    24    23    2
    77   105   107   ar
    78   112   110   ar
    79    64    65    1
    80    64    67    1
    81   108   110   ar
    82   108   107   ar
    83   139   140    1
    84    73    72    1
    85    73    74    2
    86    38    40   ar
    87    71    65   am
    88    71    72    1
    89    41    43   ar
    90   127   126    1
    91   125   126    1
    92    23    22    1
    93    65    66    2
    94    67    68    1
    95    69    68    1
    96    51    53   ar
    97    51    50   ar
    98    49    50    1
    99    49    46    1
   100   142   141    2
   101    48    47    2
   102   140   141    1
   103   140   143    1
   104    10     9    2
   105    53    54   ar
   106    40    42   ar
   107    50    52   ar
   108   168   167    1
   109    43    42   ar
   110    43    44    1
   111    25    22    1
   112    25    26    1
   113   141   148   am
   114    68    70    1
   115    22    21    1
   116    47    46    1
   117    13    15   ar
   118    13    12   ar
   119    54    52   ar
   120   144   143    1
   121   144   145    1
   122    11    12    1
   123    11     8    1
   124    46    45    1
   125    15    16   ar
   126     9     8    1
   127    12    14   ar
   128   148   149    1
   129   167   166    1
   130   167   169    1
   131    27    26   ar
   132    27    29   ar
   133    26    28   ar
   134   145   146    1
   135     8     7    1
   136   166   163    1
   137   149   150    1
   138   149   152    1
   139    16    14   ar
   140    16    18   ar
   141    14    17   ar
   142   151   150    2
   143   162   163    1
   144   150   153   am
   145    29    31   ar
   146    28    30   ar
   147   165   164    2
   148   155   156    2
   149   155   154    1
   150   180   178    1
   151   163   164    1
   152    18    20   ar
   153   153   154    1
   154   164   170   am
   155    17    19   ar
   156     7     3   am
   157   146   147    1
   158     4     3    2
   159   179   178    1
   160    31    30   ar
   161    31    32    1
   162   154   157    1
   163   170   171    1
   164   178   175    1
   165    20    19   ar
   166     3     2    1
   167   171   172    1
   168   160   159   ar
   169   157   158    1
   170   173   172    2
   171   175   174    1
   172   175   176    1
   173     6     5    1
   174   159   158    1
   175   159   161   ar
   176     2     5    1
   177     2     1    1
   178   198   197    1
   179   188   190   ar
   180   188   186   ar
   181   190   191   ar
   182   176   177    2
   183   197   194    1
   184   197   199    1
   185   185   186    1
   186   185   182    1
   187   186   187   ar
   188   191   192    1
   189   191   189   ar
   190   194   193    1
   191   194   195    1
   192   193   183   am
   193   183   184    2
   194   183   182    1
   195   182   181    1
   196   187   189   ar
   197   195   196    2
