@<TRIPOS>MOLECULE
tmp/2avsB00.pdb
 104 97 0 0 0
SMALL
GASTEIGER

@<TRIPOS>ATOM
      1  N         21.9600   34.6620   27.4880 N.3     8  ARG8       -0.1245
      2  CA        22.6240   33.9010   26.4280 C.3     8  ARG8        0.1563
      3  C         23.6820   32.9860   27.0490 C.2     8  ARG8        0.2260
      4  O         24.4450   33.4190   27.9240 O.2     8  ARG8       -0.2867
      5  CB        23.2940   34.7750   25.3710 C.3     8  ARG8        0.0307
      6  CG        22.3160   35.5450   24.4800 C.3     8  ARG8        0.0489
      7  CD        23.0840   36.2860   23.3100 C.3     8  ARG8        0.2205
      8  NE        22.1000   36.9110   22.4000 N.pl3   8  ARG8       -0.0865
      9  CZ        22.3930   37.7070   21.4010 C.cat   8  ARG8        0.5346
     10  NH1       23.6870   37.9770   21.1580 N.pl3   8  ARG8        0.1354
     11  NH2       21.4350   38.2590   20.6770 N.pl3   8  ARG8        0.1354
     12  N         28.8290   31.5800   21.8730 N.3    23  LEU23      -0.1245
     13  CA        27.4810   31.1870   22.2200 C.3    23  LEU23       0.1561
     14  C         27.2820   29.6980   22.0000 C.2    23  LEU23       0.2260
     15  O         27.4950   29.1730   20.8930 O.2    23  LEU23      -0.2867
     16  CB        26.5400   31.9690   21.3050 C.3    23  LEU23       0.0270
     17  CG        25.0580   31.7340   21.4370 C.3    23  LEU23       0.0019
     18  CD1       24.5700   32.2530   22.7710 C.3    23  LEU23       0.0001
     19  CD2       24.3340   32.4350   20.2830 C.3    23  LEU23       0.0001
     20  N         25.1140   26.9380   21.0350 N.3    25  ASP25      -0.1239
     21  CA        23.9760   27.0960   20.1340 C.3    25  ASP25       0.1674
     22  C         23.4670   25.7830   19.6030 C.2    25  ASP25       0.2266
     23  O         23.9450   25.2590   18.6020 O.2    25  ASP25      -0.2867
     24  CB        24.4000   28.0310   19.0040 C.3    25  ASP25       0.1410
     25  CG        23.3120   28.4680   18.0860 C.2    25  ASP25       0.3668
     26  OD1       22.2290   27.9050   18.2090 O.co2  25  ASP25      -0.2456
     27  OD2       23.5390   29.4090   17.2940 O.co2  25  ASP25      -0.2456
     28  N         20.7890   25.1540   18.0760 N.3    27  GLY27      -0.1210
     29  CA        20.1800   25.3100   16.7600 C.3    27  GLY27       0.1956
     30  C         21.1420   25.4500   15.6100 C.2    27  GLY27       0.2612
     31  O         20.6870   25.5090   14.4500 O.2    27  GLY27      -0.2717
     32  N         22.4420   25.5000   15.8670 N.am   28  ALA28      -0.1965
     33  CA        23.4550   25.6330   14.8400 C.3    28  ALA28       0.1728
     34  C         24.0070   24.2490   14.5340 C.2    28  ALA28       0.2616
     35  O         24.5260   23.5630   15.4130 O.2    28  ALA28      -0.2715
     36  CB        24.5650   26.5530   15.2950 C.3    28  ALA28       0.0334
     37  N         23.9860   23.8400   13.2440 N.am   29  ASP29      -0.1957
     38  CA        24.5740   22.5530   12.8910 C.3    29  ASP29       0.1840
     39  C         26.0910   22.5730   13.0640 C.2    29  ASP29       0.2622
     40  O         26.7030   21.5590   13.4250 O.2    29  ASP29      -0.2715
     41  CB        24.2070   22.1860   11.4640 C.3    29  ASP29       0.1450
     42  CG        22.7370   22.0310   11.1930 C.2    29  ASP29       0.3671
     43  OD1       21.9740   21.6510   12.0700 O.co2  29  ASP29      -0.2456
     44  OD2       22.3570   22.3370   10.0480 O.co2  29  ASP29      -0.2456
     45  N         26.6810   23.7100   12.7360 N.am   30  ASP30      -0.1971
     46  CA        28.1160   23.9030   12.6030 C.3    30  ASP30       0.1709
     47  C         28.5760   25.0100   13.5350 C.2    30  ASP30       0.2293
     48  O         27.7580   25.6740   14.1860 O.2    30  ASP30      -0.2864
     49  CB        28.5000   24.3140   11.1550 C.3    30  ASP30       0.1436
     50  CG        27.9590   23.3880   10.1100 C.2    30  ASP30       0.3671
     51  OD1       28.0270   22.1680   10.3140 O.co2  30  ASP30      -0.2456
     52  OD2       27.4690   23.9120    9.0890 O.co2  30  ASP30      -0.2456
     53  N         30.7780   28.5170   13.8900 N.3    32  VAL32      -0.1245
     54  CA        31.2920   29.6340   13.1160 C.3    32  VAL32       0.1561
     55  C         31.8710   30.6250   14.1260 C.2    32  VAL32       0.2260
     56  O         31.2550   30.9200   15.1520 O.2    32  VAL32      -0.2867
     57  CB        30.2230   30.4310   12.3510 C.3    32  VAL32       0.0252
     58  CG1       30.8400   31.4800   11.4440 C.3    32  VAL32       0.0019
     59  CG2       29.3810   29.4930   11.5350 C.3    32  VAL32       0.0019
     60  N         27.2200   28.8570    4.4450 N.3    47  ILE47      -0.1231
     61  CA        26.2410   28.3440    5.4180 C.3    47  ILE47       0.1692
     62  C         25.0620   29.2980    5.4460 C.2    47  ILE47       0.2593
     63  O         25.1820   30.4850    5.1620 O.2    47  ILE47      -0.2718
     64  CB        26.8860   28.1600    6.7890 C.3    47  ILE47       0.0266
     65  CG1       27.2040   29.4790    7.4910 C.3    47  ILE47       0.0019
     66  CG2       28.1400   27.3090    6.6590 C.3    47  ILE47       0.0020
     67  CD1       26.1790   29.9780    8.4700 C.3    47  ILE47       0.0001
     68  N         23.9090   28.7650    5.8180 N.am   48  GLY48      -0.1942
     69  CA        22.6770   29.5450    5.8520 C.3    48  GLY48       0.2014
     70  C         21.9990   29.4520    7.1940 C.2    48  GLY48       0.2639
     71  O         21.9300   28.4020    7.8310 O.2    48  GLY48      -0.2714
     72  N         21.4000   30.5600    7.5770 N.am   49  GLY49      -0.1939
     73  CA        20.5200   30.5720    8.7590 C.3    49  GLY49       0.2014
     74  C         19.3310   31.4710    8.5100 C.2    49  GLY49       0.2638
     75  O         18.9540   31.7260    7.3790 O.2    49  GLY49      -0.2714
     76  N         18.7730   32.0260    9.5960 N.am   50  VAL50      -0.1977
     77  CA        17.7430   33.0390    9.4110 C.3    50  VAL50       0.1596
     78  C         18.4070   34.2380    8.7120 C.2    50  VAL50       0.2287
     79  O         19.4900   34.6560    9.1110 O.2    50  VAL50      -0.2864
     80  CB        17.0740   33.3800   10.7590 C.3    50  VAL50       0.0276
     81  CG1       16.2040   34.6180   10.6400 C.3    50  VAL50       0.0022
     82  CG2       16.2670   32.2270   11.3340 C.3    50  VAL50       0.0022
     83  N         27.4210   37.1320   13.0780 N.3    81  PRO81      -0.2102
     84  CA        27.1610   38.2270   14.0320 C.3    81  PRO81       0.1504
     85  C         27.7140   38.0000   15.4060 C.2    81  PRO81       0.2575
     86  O         27.9570   38.9670   16.1240 O.2    81  PRO81      -0.2718
     87  CB        25.6360   38.3150   14.0710 C.3    81  PRO81       0.0282
     88  CG        25.1930   37.7160   12.7590 C.3    81  PRO81       0.0208
     89  CD        26.1520   36.5630   12.5500 C.3    81  PRO81       0.0893
     90  N         27.8190   36.7310   15.8260 N.am   82  VAL82      -0.1980
     91  CA        28.3320   36.3290   17.1180 C.3    82  VAL82       0.1595
     92  C         29.1130   35.0260   16.9100 C.2    82  VAL82       0.2287
     93  O         28.8050   34.2660   15.9800 O.2    82  VAL82      -0.2864
     94  CB        27.1880   36.1270   18.1180 C.3    82  VAL82       0.0276
     95  CG1       26.2090   35.1620   17.5000 C.3    82  VAL82       0.0022
     96  CG2       27.6180   35.5990   19.4710 C.3    82  VAL82       0.0022
     97  N         29.6920   31.2950   17.4030 N.3    84  ILE84      -0.1245
     98  CA        28.7180   30.2520   17.6020 C.3    84  ILE84       0.1561
     99  C         29.3930   28.8900   17.6930 C.2    84  ILE84       0.2260
    100  O         30.1230   28.4810   16.7900 O.2    84  ILE84      -0.2867
    101  CB        27.7470   30.2000   16.4250 C.3    84  ILE84       0.0252
    102  CG1       26.8770   31.4520   16.3460 C.3    84  ILE84       0.0019
    103  CG2       26.8840   28.9170   16.3850 C.3    84  ILE84       0.0019
    104  CD1       26.1460   31.6450   15.0500 C.3    84  ILE84       0.0001
@<TRIPOS>BOND
     1    60    61    1
     2    63    62    2
     3    61    62    1
     4    61    64    1
     5    62    68   am
     6    68    69    1
     7    69    70    1
     8    66    64    1
     9    64    65    1
    10    70    72   am
    11    70    71    2
    12    75    74    2
    13    65    67    1
    14    72    73    1
    15    74    73    1
    16    74    76   am
    17    78    79    2
    18    78    77    1
    19    52    50   ar
    20    77    76    1
    21    77    80    1
    22    44    42   ar
    23    50    51   ar
    24    50    49    1
    25    81    80    1
    26    80    82    1
    27    49    46    1
    28    42    41    1
    29    42    43   ar
    30    58    57    1
    31    41    38    1
    32    59    57    1
    33    57    54    1
    34    89    88    1
    35    89    83    1
    36    46    45    1
    37    46    47    1
    38    45    39   am
    39    88    87    1
    40    38    39    1
    41    38    37    1
    42    39    40    2
    43    83    84    1
    44    54    53    1
    45    54    55    1
    46    37    34   am
    47    47    48    2
    48    84    87    1
    49    84    85    1
    50    55    56    2
    51    31    30    2
    52    34    33    1
    53    34    35    2
    54    33    36    1
    55    33    32    1
    56   104   102    1
    57    85    90   am
    58    85    86    2
    59    30    32   am
    60    30    29    1
    61    90    91    1
    62    93    92    2
    63   102   101    1
    64   103   101    1
    65   101    98    1
    66    29    28    1
    67   100    99    2
    68    92    91    1
    69    91    94    1
    70    27    25   ar
    71    97    98    1
    72    95    94    1
    73    98    99    1
    74    25    26   ar
    75    25    24    1
    76    94    96    1
    77    23    22    2
    78    24    21    1
    79    22    21    1
    80    21    20    1
    81    19    17    1
    82    11     9    1
    83    15    14    2
    84    10     9    1
    85    16    17    1
    86    16    13    1
    87     9     8    2
    88    17    18    1
    89    12    13    1
    90    14    13    1
    91     8     7    1
    92     7     6    1
    93     6     5    1
    94     5     2    1
    95     2     3    1
    96     2     1    1
    97     3     4    2
