@<TRIPOS>MOLECULE
tmp/2aw1A01.pdb
 183 181 0 0 0
SMALL
GASTEIGER

@<TRIPOS>ATOM
      1  N          8.4920   -0.6000   10.2820 N.3     3  TRP3       -0.1241
      2  CA         7.8290   -1.5540   11.1590 C.3     3  TRP3        0.1605
      3  C          6.8050   -2.3890   10.4040 C.2     3  TRP3        0.2264
      4  O          6.2660   -1.9680    9.3820 O.2     3  TRP3       -0.2867
      5  CB         7.1410   -0.8400   12.3310 C.3     3  TRP3        0.0550
      6  CG         5.9180   -0.0560   11.9530 C.ar    3  TRP3        0.0003
      7  CD1        5.8650    1.2530   11.5770 C.ar    3  TRP3        0.0946
      8  CD2        4.5690   -0.5380   11.9240 C.ar    3  TRP3        0.0152
      9  NE1        4.5650    1.6210   11.3200 N.ar    3  TRP3       -0.2442
     10  CE2        3.7490    0.5390   11.5250 C.ar    3  TRP3        0.0810
     11  CE3        3.9730   -1.7780   12.1980 C.ar    3  TRP3        0.0012
     12  CZ2        2.3620    0.4160   11.3920 C.ar    3  TRP3        0.0191
     13  CZ3        2.5940   -1.8990   12.0650 C.ar    3  TRP3        0.0001
     14  CH2        1.8060   -0.8060   11.6670 C.ar    3  TRP3        0.0015
     15  N         -3.2170    0.2230    3.6090 N.3    60  ASN60      -0.1240
     16  CA        -2.0660    1.0040    4.0540 C.3    60  ASN60       0.1653
     17  C         -0.8120    0.1700    4.3020 C.2    60  ASN60       0.2266
     18  O          0.1610    0.6590    4.8790 O.2    60  ASN60      -0.2867
     19  CB        -2.4110    1.7850    5.3250 C.3    60  ASN60       0.1155
     20  CG        -2.8610    0.8850    6.4560 C.2    60  ASN60       0.2627
     21  OD1       -2.3760   -0.2350    6.5980 O.2    60  ASN60      -0.2716
     22  ND2       -3.7850    1.3760    7.2770 N.am   60  ASN60      -0.0877
     23  N         -0.6280   -2.3930    6.2470 N.3    62  HIS62      -0.1241
     24  CA        -0.7040   -3.0190    7.5660 C.3    62  HIS62       0.1621
     25  C         -2.0810   -3.6380    7.7660 C.2    62  HIS62       0.2264
     26  O         -2.2270   -4.6730    8.4140 O.2    62  HIS62      -0.2867
     27  CB        -0.4310   -1.9710    8.6420 C.3    62  HIS62       0.0745
     28  CG         0.8590   -1.2430    8.4390 C.ar   62  HIS62       0.0817
     29  ND1        2.0860   -1.8530    8.5960 N.ar   62  HIS62      -0.2268
     30  CD2        1.1150    0.0150    8.0120 C.ar   62  HIS62       0.1154
     31  CE1        3.0410   -1.0010    8.2690 C.ar   62  HIS62       0.1986
     32  NE2        2.4780    0.1380    7.9100 N.ar   62  HIS62      -0.2212
     33  N        -13.9410    8.1890   12.5660 N.3    89  ILE89      -0.1231
     34  CA       -13.0900    8.6040   11.4600 C.3    89  ILE89       0.1692
     35  C        -12.7710    7.4330   10.5250 C.2    89  ILE89       0.2591
     36  O        -12.6540    7.6140    9.3190 O.2    89  ILE89      -0.2718
     37  CB       -11.7870    9.2650   11.9800 C.3    89  ILE89       0.0266
     38  CG1      -10.9030    9.6940   10.8050 C.3    89  ILE89       0.0019
     39  CG2      -11.0590    8.3250   12.9120 C.3    89  ILE89       0.0020
     40  CD1       -9.7920   10.6390   11.2070 C.3    89  ILE89       0.0001
     41  N        -12.6580    6.2220   11.0570 N.am   90  GLN90      -0.1979
     42  CA       -12.3670    5.0810   10.1970 C.3    90  GLN90       0.1601
     43  C        -12.4960    3.8120   10.9940 C.2    90  GLN90       0.2287
     44  O        -12.5950    3.8590   12.2160 O.2    90  GLN90      -0.2864
     45  CB       -10.9320    5.1690    9.6560 C.3    90  GLN90       0.0394
     46  CG        -9.8570    5.2430   10.7540 C.3    90  GLN90       0.0908
     47  CD        -9.0690    3.9500   10.9460 C.2    90  GLN90       0.2608
     48  OE1       -9.6390    2.8690   11.1090 O.2    90  GLN90      -0.2717
     49  NE2       -7.7460    4.0640   10.9440 N.am   90  GLN90      -0.0878
     50  N        -11.1380   -0.5630   10.7850 N.3    92  HIS92      -0.1241
     51  CA       -10.2760   -1.5350   10.1370 C.3    92  HIS92       0.1621
     52  C        -10.3070   -2.7880   10.9860 C.2    92  HIS92       0.2264
     53  O        -10.9350   -2.8110   12.0460 O.2    92  HIS92      -0.2867
     54  CB        -8.8450   -1.0160   10.0780 C.3    92  HIS92       0.0745
     55  CG        -8.2650   -0.7170   11.4240 C.ar   92  HIS92       0.0817
     56  ND1       -8.4350    0.4980   12.0520 N.ar   92  HIS92      -0.2268
     57  CD2       -7.5630   -1.4910   12.2850 C.ar   92  HIS92       0.1154
     58  CE1       -7.8600    0.4590   13.2430 C.ar   92  HIS92       0.1986
     59  NE2       -7.3240   -0.7380   13.4080 N.ar   92  HIS92      -0.2212
     60  N         -7.9800   -6.5670   12.2720 N.3    94  HIS94      -0.1241
     61  CA        -6.7220   -7.2560   12.5250 C.3    94  HIS94       0.1621
     62  C         -7.1780   -8.7020   12.4300 C.2    94  HIS94       0.2264
     63  O         -8.2310   -9.0550   12.9710 O.2    94  HIS94      -0.2867
     64  CB        -6.1980   -6.9590   13.9280 C.3    94  HIS94       0.0745
     65  CG        -5.8440   -5.5230   14.1370 C.ar   94  HIS94       0.0817
     66  ND1       -4.5910   -5.0150   13.8640 N.ar   94  HIS94      -0.2268
     67  CD2       -6.5960   -4.4720   14.5410 C.ar   94  HIS94       0.1154
     68  CE1       -4.5880   -3.7130   14.0940 C.ar   94  HIS94       0.1986
     69  NE2       -5.7930   -3.3600   14.5030 N.ar   94  HIS94      -0.2212
     70  N        -11.9320   -2.6270   14.6650 N.3   117  HIS117     -0.1241
     71  CA       -11.6510   -1.4110   15.4220 C.3   117  HIS117      0.1621
     72  C        -12.3050   -0.2110   14.7680 C.2   117  HIS117      0.2264
     73  O        -11.9480    0.1620   13.6490 O.2   117  HIS117     -0.2867
     74  CB       -10.1420   -1.1620   15.5030 C.3   117  HIS117      0.0745
     75  CG        -9.4260   -2.1070   16.4150 C.ar  117  HIS117      0.0817
     76  ND1       -8.0570   -2.2760   16.3890 N.ar  117  HIS117     -0.2268
     77  CD2       -9.8890   -2.9300   17.3850 C.ar  117  HIS117      0.1154
     78  CE1       -7.7100   -3.1660   17.2990 C.ar  117  HIS117      0.1986
     79  NE2       -8.8020   -3.5780   17.9180 N.ar  117  HIS117     -0.2212
     80  N        -12.5360    3.5180   15.0150 N.3   119  VAL119     -0.1245
     81  CA       -11.7550    4.6080   15.5930 C.3   119  VAL119      0.1561
     82  C        -12.4800    5.9450   15.6450 C.2   119  VAL119      0.2260
     83  O        -12.9910    6.4190   14.6270 O.2   119  VAL119     -0.2867
     84  CB       -10.4380    4.7730   14.8020 C.3   119  VAL119      0.0252
     85  CG1       -9.5350    5.7840   15.4820 C.3   119  VAL119      0.0019
     86  CG2       -9.7370    3.4290   14.6840 C.3   119  VAL119      0.0019
     87  N        -12.3860   10.1020   17.4590 N.3   121  TRP121     -0.1241
     88  CA       -11.5980   11.1180   18.1450 C.3   121  TRP121      0.1605
     89  C        -12.5040   12.0710   18.9180 C.2   121  TRP121      0.2264
     90  O        -13.6250   12.3700   18.4980 O.2   121  TRP121     -0.2867
     91  CB       -10.7060   11.9070   17.1740 C.3   121  TRP121      0.0550
     92  CG       -11.4060   12.4960   15.9940 C.ar  121  TRP121      0.0003
     93  CD1      -11.6890   11.8750   14.8120 C.ar  121  TRP121      0.0946
     94  CD2      -11.9020   13.8350   15.8740 C.ar  121  TRP121      0.0152
     95  NE1      -12.3280   12.7440   13.9620 N.ar  121  TRP121     -0.2442
     96  CE2      -12.4730   13.9540   14.5880 C.ar  121  TRP121      0.0810
     97  CE3      -11.9190   14.9470   16.7300 C.ar  121  TRP121      0.0012
     98  CZ2      -13.0560   15.1400   14.1330 C.ar  121  TRP121      0.0191
     99  CZ3      -12.5010   16.1280   16.2760 C.ar  121  TRP121      0.0001
    100  CH2      -13.0610   16.2130   14.9880 C.ar  121  TRP121      0.0015
    101  N         -8.2430   15.0420   14.7510 N.3   128  PHE128     -0.1241
    102  CA        -7.6130   13.8620   15.3210 C.3   128  PHE128      0.1605
    103  C         -6.1330   14.0900   15.6210 C.2   128  PHE128      0.2264
    104  O         -5.5840   13.4820   16.5380 O.2   128  PHE128     -0.2867
    105  CB        -7.8060   12.6470   14.3960 C.3   128  PHE128      0.0534
    106  CG        -6.7850   12.5350   13.2970 C.ar  128  PHE128     -0.0203
    107  CD1       -5.5040   12.0630   13.5650 C.ar  128  PHE128     -0.0042
    108  CD2       -7.1080   12.8880   11.9910 C.ar  128  PHE128     -0.0042
    109  CE1       -4.5570   11.9430   12.5500 C.ar  128  PHE128     -0.0003
    110  CE2       -6.1670   12.7710   10.9680 C.ar  128  PHE128     -0.0003
    111  CZ        -4.8900   12.2970   11.2510 C.ar  128  PHE128     -0.0000
    112  N         -4.5980   13.1260   19.3330 N.3   132  VAL132     -0.1245
    113  CA        -3.5670   12.1460   19.6780 C.3   132  VAL132      0.1561
    114  C         -2.4090   12.7400   20.4740 C.2   132  VAL132      0.2260
    115  O         -1.3120   12.1860   20.5210 O.2   132  VAL132     -0.2867
    116  CB        -3.0270   11.4200   18.4240 C.3   132  VAL132      0.0252
    117  CG1       -4.1580   10.6450   17.7560 C.3   132  VAL132      0.0019
    118  CG2       -2.4130   12.4160   17.4570 C.3   132  VAL132      0.0019
    119  N         -8.7970    9.7700   22.1000 N.3   138  LEU138     -0.1245
    120  CA        -9.4270    8.7780   21.2400 C.3   138  LEU138      0.1561
    121  C        -10.2680    7.7510   21.9700 C.2   138  LEU138      0.2260
    122  O        -10.1060    7.5270   23.1640 O.2   138  LEU138     -0.2867
    123  CB        -8.3520    8.0250   20.4540 C.3   138  LEU138      0.0270
    124  CG        -7.3440    8.8100   19.6180 C.3   138  LEU138      0.0019
    125  CD1       -6.3110    7.8420   19.0550 C.3   138  LEU138      0.0001
    126  CD2       -8.0520    9.5550   18.4950 C.3   138  LEU138      0.0001
    127  N        -11.7030    3.8130   20.8930 N.3   140  VAL140     -0.1245
    128  CA       -11.7940    2.7800   19.8810 C.3   140  VAL140      0.1561
    129  C        -12.7530    1.7060   20.3690 C.2   140  VAL140      0.2260
    130  O        -12.6180    1.1770   21.4770 O.2   140  VAL140     -0.2867
    131  CB       -10.4200    2.1410   19.5650 C.3   140  VAL140      0.0252
    132  CG1      -10.5880    1.0820   18.4680 C.3   140  VAL140      0.0019
    133  CG2       -9.4380    3.2060   19.1000 C.3   140  VAL140      0.0019
    134  N         -2.8290    3.0630   20.9700 N.3   195  LEU195     -0.1231
    135  CA        -2.9900    2.6200   19.5990 C.3   195  LEU195      0.1693
    136  C         -2.2160    1.3020   19.6260 C.2   195  LEU195      0.2593
    137  O         -1.2080    1.1880   20.3380 O.2   195  LEU195     -0.2718
    138  CB        -2.3170    3.6000   18.6450 C.3   195  LEU195      0.0284
    139  CG        -2.9330    4.9960   18.5880 C.3   195  LEU195      0.0019
    140  CD1       -2.1170    5.8640   17.6370 C.3   195  LEU195      0.0001
    141  CD2       -4.3810    4.9040   18.1190 C.3   195  LEU195      0.0001
    142  N         -2.6660    0.3120   18.8650 N.am  196  THR196     -0.1939
    143  CA        -1.9960   -0.9850   18.8680 C.3   196  THR196      0.2028
    144  C         -0.9280   -1.1410   17.7890 C.2   196  THR196      0.2643
    145  O         -0.3390   -2.2130   17.6480 O.2   196  THR196     -0.2714
    146  CB        -3.0070   -2.1340   18.7330 C.3   196  THR196      0.1808
    147  OG1       -3.5910   -2.1010   17.4290 O.3   196  THR196     -0.2208
    148  CG2       -4.0980   -2.0120   19.7890 C.3   196  THR196      0.0379
    149  N         -0.6890   -0.0830   17.0220 N.am  197  THR197     -0.1937
    150  CA         0.3600   -0.1040   16.0000 C.3   197  THR197      0.2013
    151  C          1.1290    1.1890   16.1870 C.2   197  THR197      0.2484
    152  O          0.6280    2.1300   16.8030 O.2   197  THR197     -0.2729
    153  CB        -0.1740   -0.0720   14.5390 C.3   197  THR197      0.1807
    154  OG1       -0.6030    1.2580   14.2110 O.3   197  THR197     -0.2208
    155  CG2       -1.3240   -1.0320   14.3540 C.3   197  THR197      0.0379
    156  N          2.3720    1.2440   15.6920 N.am  198  PRO198     -0.2715
    157  CA         3.1160    2.4940   15.8480 C.3   198  PRO198      0.1521
    158  C          2.2100    3.5920   15.2820 C.2   198  PRO198      0.2440
    159  O          1.5030    3.3670   14.2950 O.2   198  PRO198     -0.2731
    160  CB         4.3490    2.2560   14.9890 C.3   198  PRO198      0.0310
    161  CG         4.6100    0.7950   15.1980 C.3   198  PRO198      0.0237
    162  CD         3.2190    0.1800   15.1240 C.3   198  PRO198      0.0939
    163  N          2.2530    4.8050   15.8500 N.am  199  PRO199     -0.2727
    164  CA         3.0570    5.3030   16.9690 C.3   199  PRO199      0.1402
    165  C          2.7450    4.8310   18.3930 C.2   199  PRO199      0.2269
    166  O          3.3710    5.3030   19.3390 O.2   199  PRO199     -0.2865
    167  CB         2.9290    6.8150   16.8220 C.3   199  PRO199      0.0296
    168  CG         1.5310    6.9670   16.3400 C.3   199  PRO199      0.0237
    169  CD         1.4190    5.8860   15.2890 C.3   199  PRO199      0.0939
    170  N        -10.4010    2.3930   25.5200 N.3   206  TRP206     -0.1241
    171  CA       -10.8660    1.2070   24.8220 C.3   206  TRP206      0.1605
    172  C        -12.2120    0.7210   25.3300 C.2   206  TRP206      0.2264
    173  O        -12.4450    0.6540   26.5300 O.2   206  TRP206     -0.2867
    174  CB        -9.8480    0.0680   24.9540 C.3   206  TRP206      0.0550
    175  CG        -8.7260    0.1610   23.9760 C.ar  206  TRP206      0.0003
    176  CD1       -7.5110    0.7640   24.1630 C.ar  206  TRP206      0.0946
    177  CD2       -8.7460   -0.2900   22.6180 C.ar  206  TRP206      0.0152
    178  NE1       -6.7790    0.7210   22.9990 N.ar  206  TRP206     -0.2442
    179  CE2       -7.5120    0.0780   22.0350 C.ar  206  TRP206      0.0810
    180  CE3       -9.6900   -0.9710   21.8350 C.ar  206  TRP206      0.0012
    181  CZ2       -7.1970   -0.2110   20.7010 C.ar  206  TRP206      0.0191
    182  CZ3       -9.3770   -1.2580   20.5100 C.ar  206  TRP206      0.0001
    183  CH2       -8.1400   -0.8770   19.9580 C.ar  206  TRP206      0.0015
@<TRIPOS>BOND
     1    15    16    1
     2    16    17    1
     3    16    19    1
     4    17    18    2
     5    19    20    1
     6    23    24    1
     7    20    21    2
     8    20    22   am
     9    24    25    1
    10    24    27    1
    11    25    26    2
    12    32    30   ar
    13    32    31   ar
    14    30    28   ar
    15    31    29   ar
    16    28    29   ar
    17    28    27    1
    18    36    35    2
    19     4     3    2
    20    45    42    1
    21    45    46    1
    22    54    51    1
    23    54    55    1
    24    51    50    1
    25    51    52    1
    26    42    43    1
    27    42    41    1
    28     1     2    1
    29     3     2    1
    30    35    41   am
    31    35    34    1
    32    46    47    1
    33    38    40    1
    34    38    37    1
    35    49    47   am
    36    47    48    2
    37   110   111   ar
    38   110   108   ar
    39    52    53    2
    40    43    44    2
    41     2     5    1
    42   111   109   ar
    43     9    10   ar
    44     9     7   ar
    45    12    10   ar
    46    12    14   ar
    47    55    56   ar
    48    55    57   ar
    49    34    37    1
    50    34    33    1
    51    10     8   ar
    52     7     6   ar
    53    14    13   ar
    54     8     6   ar
    55     8    11   ar
    56     6     5    1
    57    37    39    1
    58   108   106   ar
    59    56    58   ar
    60    13    11   ar
    61    60    61    1
    62    57    59   ar
    63    62    61    1
    64    62    63    2
    65    61    64    1
    66   109   107   ar
    67    58    59   ar
    68   106   107   ar
    69   106   105    1
    70    73    72    2
    71    66    68   ar
    72    66    65   ar
    73    64    65    1
    74    95    96   ar
    75    95    93   ar
    76    68    69   ar
    77    98    96   ar
    78    98   100   ar
    79    65    67   ar
    80   154   153    1
    81   159   158    2
    82   155   153    1
    83   105   102    1
    84    69    67   ar
    85   153   150    1
    86    96    94   ar
    87    83    82    2
    88    70    71    1
    89    86    84    1
    90   101   102    1
    91    72    71    1
    92    84    85    1
    93    84    81    1
    94    93    92   ar
    95   100    99   ar
    96   160   161    1
    97   160   157    1
    98    80    81    1
    99   162   161    1
   100   162   156    1
   101   158   157    1
   102   158   163   am
   103   169   163    1
   104   169   168    1
   105   102   103    1
   106    71    74    1
   107    74    75    1
   108    81    82    1
   109   103   104    2
   110   156   157    1
   111   156   151   am
   112   163   164    1
   113    94    92   ar
   114    94    97   ar
   115    92    91    1
   116   150   151    1
   117   150   149    1
   118   151   152    2
   119    99    97   ar
   120   168   167    1
   121    76    75   ar
   122    76    78   ar
   123    75    77   ar
   124   167   164    1
   125   164   165    1
   126   149   144   am
   127    91    88    1
   128    78    79   ar
   129    77    79   ar
   130   147   146    1
   131   118   116    1
   132    87    88    1
   133   140   139    1
   134   145   144    2
   135   117   116    1
   136   144   143    1
   137   141   139    1
   138    88    89    1
   139   165   166    2
   140   116   113    1
   141   132   131    1
   142   126   124    1
   143    90    89    2
   144   139   138    1
   145   138   135    1
   146   146   143    1
   147   146   148    1
   148   142   143    1
   149   142   136   am
   150   125   124    1
   151   133   131    1
   152   112   113    1
   153   131   128    1
   154   135   136    1
   155   135   134    1
   156   124   123    1
   157   136   137    2
   158   113   114    1
   159   128   129    1
   160   128   127    1
   161   183   182   ar
   162   183   181   ar
   163   129   130    2
   164   123   120    1
   165   114   115    2
   166   182   180   ar
   167   181   179   ar
   168   120   121    1
   169   120   119    1
   170   180   177   ar
   171   121   122    2
   172   179   177   ar
   173   179   178   ar
   174   177   175   ar
   175   178   176   ar
   176   175   176   ar
   177   175   174    1
   178   171   174    1
   179   171   172    1
   180   171   170    1
   181   172   173    2
