@<TRIPOS>MOLECULE
tmp/2awnA00.pdb
 95 90 0 0 0
SMALL
GASTEIGER

@<TRIPOS>ATOM
      1  N         36.7380  -16.4310   16.4100 N.3    12  TRP12      -0.1241
      2  CA        36.7780  -17.3730   17.5230 C.3    12  TRP12       0.1605
      3  C         36.9690  -18.7380   16.8740 C.2    12  TRP12       0.2264
      4  O         36.0140  -19.5020   16.7140 O.2    12  TRP12      -0.2867
      5  CB        35.4690  -17.3670   18.3140 C.3    12  TRP12       0.0550
      6  CG        35.0520  -16.0270   18.8380 C.ar   12  TRP12       0.0003
      7  CD1       34.2860  -15.0940   18.1970 C.ar   12  TRP12       0.0946
      8  CD2       35.3490  -15.4860   20.1250 C.ar   12  TRP12       0.0152
      9  NE1       34.0830  -14.0060   19.0100 N.ar   12  TRP12      -0.2442
     10  CE2       34.7260  -14.2200   20.2000 C.ar   12  TRP12       0.0810
     11  CE3       36.0810  -15.9470   21.2260 C.ar   12  TRP12       0.0012
     12  CZ2       34.8110  -13.4080   21.3350 C.ar   12  TRP12       0.0191
     13  CZ3       36.1670  -15.1410   22.3540 C.ar   12  TRP12       0.0001
     14  CH2       35.5340  -13.8840   22.3990 C.ar   12  TRP12       0.0015
     15  N         35.2770  -19.3300   13.1190 N.3    15  VAL15      -0.1245
     16  CA        34.1310  -18.4330   13.0040 C.3    15  VAL15       0.1561
     17  C         34.5580  -16.9630   13.0840 C.2    15  VAL15       0.2260
     18  O         35.0310  -16.4920   14.1200 O.2    15  VAL15      -0.2867
     19  CB        33.0870  -18.7150   14.1230 C.3    15  VAL15       0.0252
     20  CG1       31.9180  -17.7420   14.0130 C.3    15  VAL15       0.0019
     21  CG2       32.5900  -20.1530   14.0230 C.3    15  VAL15       0.0019
     22  N         33.4080  -13.2860   13.2520 N.3    17  VAL17      -0.1245
     23  CA        32.2530  -12.4520   13.5730 C.3    17  VAL17       0.1561
     24  C         32.3590  -11.0240   13.0460 C.2    17  VAL17       0.2260
     25  O         31.3450  -10.3540   12.8800 O.2    17  VAL17      -0.2867
     26  CB        32.0100  -12.3890   15.0910 C.3    17  VAL17       0.0252
     27  CG1       31.8580  -13.7950   15.6500 C.3    17  VAL17       0.0019
     28  CG2       33.1400  -11.6500   15.7650 C.3    17  VAL17       0.0019
     29  N         19.8270   -9.8600   15.1690 N.3    37  SER37      -0.1202
     30  CA        20.5470  -10.4710   16.2810 C.3    37  SER37       0.2020
     31  C         21.5110  -11.4960   15.6950 C.2    37  SER37       0.2619
     32  O         21.1630  -12.2220   14.7700 O.2    37  SER37      -0.2717
     33  CB        19.5780  -11.1610   17.2620 C.3    37  SER37       0.2103
     34  OG        18.8920  -10.2090   18.0680 O.3    37  SER37      -0.2182
     35  N         22.7230  -11.5360   16.2340 N.am   38  GLY38      -0.1942
     36  CA        23.7330  -12.4550   15.7490 C.3    38  GLY38       0.2014
     37  C         24.6490  -11.8690   14.6800 C.2    38  GLY38       0.2639
     38  O         25.5780  -12.5410   14.2360 O.2    38  GLY38      -0.2714
     39  N         24.4140  -10.6260   14.2690 N.am   39  CYS39      -0.1953
     40  CA        25.2350  -10.0140   13.2290 C.3    39  CYS39       0.1843
     41  C         26.5620   -9.4140   13.6950 C.2    39  CYS39       0.2626
     42  O         27.3680   -8.9880   12.8680 O.2    39  CYS39      -0.2714
     43  CB        24.4360   -8.9480   12.4810 C.3    39  CYS39       0.0997
     44  SG        24.1430   -7.4540   13.4460 S.3    39  CYS39      -0.0797
     45  N         26.7960   -9.3650   15.0040 N.am   40  GLY40      -0.1940
     46  CA        28.0570   -8.8300   15.4980 C.3    40  GLY40       0.2014
     47  C         28.0610   -7.4640   16.1640 C.2    40  GLY40       0.2639
     48  O         29.1330   -6.9220   16.4300 O.2    40  GLY40      -0.2714
     49  N         26.8860   -6.9010   16.4380 N.am   41  LYS41      -0.1963
     50  CA        26.7920   -5.5880   17.0690 C.3    41  LYS41       0.1728
     51  C         27.4880   -5.5250   18.4230 C.2    41  LYS41       0.2617
     52  O         28.3100   -4.6430   18.6650 O.2    41  LYS41      -0.2715
     53  CB        25.3240   -5.1880   17.2400 C.3    41  LYS41       0.0311
     54  CG        24.5990   -4.8890   15.9380 C.3    41  LYS41       0.0038
     55  CD        23.0790   -4.9040   16.1250 C.3    41  LYS41       0.0206
     56  CE        22.6340   -6.2510   16.6910 C.3    41  LYS41       0.1093
     57  NZ        21.1730   -6.3520   16.7240 N.3    41  LYS41      -0.1314
     58  N         27.1490   -6.4540   19.3080 N.am   42  SER42      -0.1936
     59  CA        27.7420   -6.4790   20.6370 C.3    42  SER42       0.2055
     60  C         29.2440   -6.7640   20.6200 C.2    42  SER42       0.2643
     61  O         30.0030   -6.2010   21.4100 O.2    42  SER42      -0.2714
     62  CB        27.0230   -7.5070   21.5180 C.3    42  SER42       0.2130
     63  OG        25.7700   -7.0090   21.9620 O.3    42  SER42      -0.2179
     64  N         29.6730   -7.6390   19.7220 N.am   43  THR43      -0.1950
     65  CA        31.0810   -7.9730   19.6350 C.3    43  THR43       0.1897
     66  C         31.8700   -6.7040   19.3130 C.2    43  THR43       0.2313
     67  O         32.8750   -6.4240   19.9610 O.2    43  THR43      -0.2863
     68  CB        31.3260   -9.0810   18.5700 C.3    43  THR43       0.1794
     69  OG1       30.8000  -10.3290   19.0570 O.3    43  THR43      -0.2208
     70  CG2       32.8140   -9.2470   18.2830 C.3    43  THR43       0.0378
     71  N         36.8550   -7.2240   24.8930 N.3    52  GLU52      -0.1245
     72  CA        37.1340   -8.3170   23.9580 C.3    52  GLU52       0.1567
     73  C         38.3710   -7.9160   23.1530 C.2    52  GLU52       0.2260
     74  O         38.6560   -6.7320   23.0100 O.2    52  GLU52      -0.2867
     75  CB        35.9500   -8.5280   23.0080 C.3    52  GLU52       0.0388
     76  CG        34.6460   -8.9420   23.6870 C.3    52  GLU52       0.1160
     77  CD        34.6410  -10.3880   24.1670 C.2    52  GLU52       0.3649
     78  OE1       33.5990  -10.8260   24.7110 O.co2  52  GLU52      -0.2457
     79  OE2       35.6680  -11.0860   24.0000 O.co2  52  GLU52      -0.2457
     80  N         21.5960   -1.6470   23.0170 N.3   116  GLU116     -0.1245
     81  CA        20.1540   -1.8980   23.0850 C.3   116  GLU116      0.1567
     82  C         19.5670   -1.4620   24.4260 C.2   116  GLU116      0.2260
     83  O         19.0160   -2.2730   25.1600 O.2   116  GLU116     -0.2867
     84  CB        19.8700   -3.3850   22.8560 C.3   116  GLU116      0.0388
     85  CG        20.3750   -3.8840   21.5240 C.3   116  GLU116      0.1160
     86  CD        19.7190   -5.1790   21.1050 C.2   116  GLU116      0.3649
     87  OE1       18.4720   -5.2400   21.1900 O.co2 116  GLU116     -0.2457
     88  OE2       20.4340   -6.1200   20.6770 O.co2 116  GLU116     -0.2457
     89  N         23.7530    0.5940   19.6360 N.3   147  VAL147     -0.1245
     90  CA        23.5170   -0.6670   18.9490 C.3   147  VAL147      0.1561
     91  C         22.0900   -1.2000   19.1320 C.2   147  VAL147      0.2260
     92  O         21.5800   -1.2620   20.2460 O.2   147  VAL147     -0.2867
     93  CB        24.5420   -1.7170   19.4380 C.3   147  VAL147      0.0252
     94  CG1       23.9930   -3.1030   19.2910 C.3   147  VAL147      0.0019
     95  CG2       25.8220   -1.5800   18.6360 C.3   147  VAL147      0.0019
@<TRIPOS>BOND
     1    43    40    1
     2    43    44    1
     3    42    41    2
     4    25    24    2
     5    16    17    1
     6    16    15    1
     7    16    19    1
     8    24    23    1
     9    17    18    2
    10    40    41    1
    11    40    39    1
    12    22    23    1
    13    23    26    1
    14    41    45   am
    15    20    19    1
    16    21    19    1
    17    38    37    2
    18    39    37   am
    19    37    36    1
    20    32    31    2
    21    45    46    1
    22    26    27    1
    23    26    28    1
    24    29    30    1
    25    46    47    1
    26    31    35   am
    27    31    30    1
    28    36    35    1
    29    54    55    1
    30    54    53    1
    31    55    56    1
    32    47    48    2
    33    47    49   am
    34    30    33    1
    35     1     2    1
    36    49    50    1
    37    56    57    1
    38     4     3    2
    39     3     2    1
    40    50    53    1
    41    50    51    1
    42    33    34    1
    43     2     5    1
    44     7     6   ar
    45     7     9   ar
    46    70    68    1
    47     5     6    1
    48    51    52    2
    49    51    58   am
    50    68    69    1
    51    68    65    1
    52    95    93    1
    53     6     8   ar
    54    90    91    1
    55    90    93    1
    56    90    89    1
    57     9    10   ar
    58    91    92    2
    59    94    93    1
    60    58    59    1
    61    66    65    1
    62    66    67    2
    63    65    64    1
    64    64    60   am
    65     8    10   ar
    66     8    11   ar
    67    10    12   ar
    68    60    59    1
    69    60    61    2
    70    59    62    1
    71    88    86   ar
    72    86    87   ar
    73    86    85    1
    74    11    13   ar
    75    12    14   ar
    76    62    63    1
    77    85    84    1
    78    13    14   ar
    79    84    81    1
    80    75    76    1
    81    75    72    1
    82    74    73    2
    83    80    81    1
    84    81    82    1
    85    73    72    1
    86    76    77    1
    87    72    71    1
    88    79    77   ar
    89    77    78   ar
    90    82    83    2
