@<TRIPOS>MOLECULE
tmp/2awnD00.pdb
 105 100 0 0 0
SMALL
GASTEIGER

@<TRIPOS>ATOM
      1  N        -13.2850   50.6790   63.8940 N.3    12  TRP12      -0.1241
      2  CA       -13.3250   49.9070   65.1260 C.3    12  TRP12       0.1605
      3  C        -13.6620   50.8970   66.2270 C.2    12  TRP12       0.2264
      4  O        -12.7740   51.4360   66.8950 O.2    12  TRP12      -0.2867
      5  CB       -11.9720   49.2620   65.4180 C.3    12  TRP12       0.0550
      6  CG       -11.5320   48.2700   64.3940 C.ar   12  TRP12       0.0003
      7  CD1      -10.7900   48.5150   63.2710 C.ar   12  TRP12       0.0946
      8  CD2      -11.7780   46.8610   64.4140 C.ar   12  TRP12       0.0152
      9  NE1      -10.5530   47.3400   62.5940 N.ar   12  TRP12      -0.2442
     10  CE2      -11.1490   46.3100   63.2730 C.ar   12  TRP12       0.0810
     11  CE3      -12.4680   46.0080   65.2870 C.ar   12  TRP12       0.0012
     12  CZ2      -11.1890   44.9420   62.9840 C.ar   12  TRP12       0.0191
     13  CZ3      -12.5080   44.6480   65.0000 C.ar   12  TRP12       0.0001
     14  CH2      -11.8700   44.1300   63.8570 C.ar   12  TRP12       0.0015
     15  N        -11.8560   54.6420   66.0650 N.3    15  VAL15      -0.1245
     16  CA       -10.7920   54.6380   65.0700 C.3    15  VAL15       0.1561
     17  C        -11.3140   54.1810   63.7120 C.2    15  VAL15       0.2260
     18  O        -12.2260   53.3590   63.6310 O.2    15  VAL15      -0.2867
     19  CB        -9.6290   53.7180   65.5060 C.3    15  VAL15       0.0252
     20  CG1       -8.9370   54.2990   66.7270 C.3    15  VAL15       0.0019
     21  CG2      -10.1550   52.3280   65.8230 C.3    15  VAL15       0.0019
     22  N         -9.7270   52.6250   60.3740 N.3    17  VAL17      -0.1245
     23  CA        -8.5650   52.0570   59.6950 C.3    17  VAL17       0.1561
     24  C         -8.7010   52.0920   58.1770 C.2    17  VAL17       0.2260
     25  O         -7.7200   51.9360   57.4490 O.2    17  VAL17      -0.2867
     26  CB        -8.3270   50.5970   60.1380 C.3    17  VAL17       0.0252
     27  CG1       -8.3640   50.5110   61.6570 C.3    17  VAL17       0.0019
     28  CG2       -9.3750   49.6840   59.5250 C.3    17  VAL17       0.0019
     29  N          3.8540   49.7170   57.6430 N.3    37  SER37      -0.1202
     30  CA         3.1470   48.8460   58.5770 C.3    37  SER37       0.2020
     31  C          2.1810   49.6690   59.4280 C.2    37  SER37       0.2619
     32  O          2.5220   50.7510   59.8980 O.2    37  SER37      -0.2717
     33  CB         4.1570   48.1210   59.4760 C.3    37  SER37       0.2103
     34  OG         4.9890   49.0550   60.1510 O.3    37  SER37      -0.2182
     35  N          0.9700   49.1580   59.6140 N.am   38  GLY38      -0.1942
     36  CA        -0.0150   49.8780   60.3980 C.3    38  GLY38       0.2014
     37  C         -0.9280   50.7790   59.5730 C.2    38  GLY38       0.2639
     38  O         -1.7710   51.4850   60.1380 O.2    38  GLY38      -0.2714
     39  N         -0.7740   50.7560   58.2460 N.am   39  CYS39      -0.1953
     40  CA        -1.6020   51.5860   57.3680 C.3    39  CYS39       0.1843
     41  C         -2.9810   51.0010   57.0840 C.2    39  CYS39       0.2626
     42  O         -3.8730   51.7150   56.6490 O.2    39  CYS39      -0.2714
     43  CB        -0.8840   51.8630   56.0440 C.3    39  CYS39       0.0997
     44  SG        -0.5590   50.4070   55.0270 S.3    39  CYS39      -0.0797
     45  N         -3.1620   49.7070   57.3270 N.am   40  GLY40      -0.1940
     46  CA        -4.4630   49.0960   57.0960 C.3    40  GLY40       0.2014
     47  C         -4.5110   48.0000   56.0430 C.2    40  GLY40       0.2639
     48  O         -5.5880   47.5250   55.6860 O.2    40  GLY40      -0.2714
     49  N         -3.3480   47.5910   55.5480 N.am   41  LYS41      -0.1963
     50  CA        -3.2720   46.5550   54.5250 C.3    41  LYS41       0.1728
     51  C         -4.0820   45.3150   54.8720 C.2    41  LYS41       0.2617
     52  O         -5.0010   44.9420   54.1430 O.2    41  LYS41      -0.2715
     53  CB        -1.8190   46.1520   54.2830 C.3    41  LYS41       0.0311
     54  CG        -0.9440   47.2490   53.7060 C.3    41  LYS41       0.0038
     55  CD         0.4380   46.6920   53.3650 C.3    41  LYS41       0.0206
     56  CE         1.5540   47.3830   54.1410 C.3    41  LYS41       0.1093
     57  NZ         1.3450   47.3910   55.6090 N.3    41  LYS41      -0.1314
     58  N         -3.7410   44.6850   55.9920 N.am   42  SER42      -0.1936
     59  CA        -4.4180   43.4730   56.4430 C.3    42  SER42       0.2055
     60  C         -5.9090   43.6370   56.7310 C.2    42  SER42       0.2643
     61  O         -6.6820   42.6980   56.5450 O.2    42  SER42      -0.2714
     62  CB        -3.7170   42.9170   57.6860 C.3    42  SER42       0.2130
     63  OG        -2.3800   42.5500   57.3910 O.3    42  SER42      -0.2179
     64  N         -6.3240   44.8120   57.1940 N.am   43  THR43      -0.1950
     65  CA        -7.7420   45.0080   57.4800 C.3    43  THR43       0.1897
     66  C         -8.5210   45.0290   56.1710 C.2    43  THR43       0.2313
     67  O         -9.7140   44.7280   56.1410 O.2    43  THR43      -0.2863
     68  CB        -8.0020   46.3110   58.2590 C.3    43  THR43       0.1794
     69  OG1       -7.3690   46.2300   59.5420 O.3    43  THR43      -0.2208
     70  CG2       -9.4930   46.5200   58.4670 C.3    43  THR43       0.0378
     71  N         -8.7820   41.2820   55.1730 N.3    46  ARG46      -0.1245
     72  CA        -9.7640   40.6390   56.0350 C.3    46  ARG46       0.1563
     73  C        -11.1890   41.0000   55.6330 C.2    46  ARG46       0.2260
     74  O        -12.0690   40.1470   55.6360 O.2    46  ARG46      -0.2867
     75  CB        -9.5190   41.0120   57.4970 C.3    46  ARG46       0.0307
     76  CG        -8.1520   40.6050   58.0200 C.3    46  ARG46       0.0489
     77  CD        -8.0630   40.7800   59.5270 C.3    46  ARG46       0.2205
     78  NE        -6.7550   40.3930   60.0460 N.pl3  46  ARG46      -0.0865
     79  CZ        -6.4140   40.4490   61.3280 C.cat  46  ARG46       0.5346
     80  NH1       -7.2880   40.8780   62.2280 N.pl3  46  ARG46       0.1354
     81  NH2       -5.2010   40.0760   61.7090 N.pl3  46  ARG46       0.1354
     82  N         -0.8130   37.7630   52.2280 N.3    87  ASP87      -0.1225
     83  CA        -0.3830   38.7860   53.1780 C.3    87  ASP87       0.1805
     84  C          1.0760   38.6060   53.6210 C.2    87  ASP87       0.2597
     85  O          1.3580   37.8290   54.5320 O.2    87  ASP87      -0.2718
     86  CB        -1.2980   38.7570   54.4010 C.3    87  ASP87       0.1424
     87  CG        -1.2950   40.0650   55.1610 C.2    87  ASP87       0.3668
     88  OD1       -0.2040   40.6350   55.3700 O.co2  87  ASP87      -0.2456
     89  OD2       -2.3860   40.5220   55.5580 O.co2  87  ASP87      -0.2456
     90  N          1.9920   39.3350   52.9810 N.am   88  GLU88      -0.1979
     91  CA         3.4290   39.2650   53.2890 C.3    88  GLU88       0.1602
     92  C          3.9590   37.8290   53.3700 C.2    88  GLU88       0.2287
     93  O          4.3580   37.3600   54.4400 O.2    88  GLU88      -0.2864
     94  CB         3.7350   39.9950   54.6040 C.3    88  GLU88       0.0415
     95  CG         4.0400   41.4790   54.4480 C.3    88  GLU88       0.1163
     96  CD         4.4090   42.1510   55.7660 C.2    88  GLU88       0.3649
     97  OE1        5.3900   41.7090   56.4110 O.co2  88  GLU88      -0.2457
     98  OE2        3.7200   43.1230   56.1540 O.co2  88  GLU88      -0.2457
     99  N         -0.2820   41.6990   49.4110 N.3   119  VAL119     -0.1245
    100  CA         0.1250   42.7120   50.3920 C.3   119  VAL119      0.1561
    101  C          1.6270   42.6620   50.7410 C.2   119  VAL119      0.2260
    102  O          2.2570   41.6080   50.6660 O.2   119  VAL119     -0.2867
    103  CB        -0.6820   42.5520   51.7090 C.3   119  VAL119      0.0252
    104  CG1       -0.1050   43.4460   52.7910 C.3   119  VAL119      0.0019
    105  CG2       -2.1400   42.9020   51.4750 C.3   119  VAL119      0.0019
@<TRIPOS>BOND
     1    99   100    1
     2   100   101    1
     3   100   103    1
     4   102   101    2
     5   105   103    1
     6   103   104    1
     7    82    83    1
     8    90    91    1
     9    90    84   am
    10    83    84    1
    11    83    86    1
    12    91    92    1
    13    91    94    1
    14    55    54    1
    15    55    56    1
    16    92    93    2
    17    84    85    2
    18    54    53    1
    19    56    57    1
    20    52    51    2
    21    53    50    1
    22    86    87    1
    23    95    94    1
    24    95    96    1
    25    50    51    1
    26    50    49    1
    27    51    58   am
    28    44    43    1
    29    87    88   ar
    30    87    89   ar
    31    71    72    1
    32    49    47   am
    33    73    74    2
    34    73    72    1
    35    48    47    2
    36    96    98   ar
    37    96    97   ar
    38    58    59    1
    39    72    75    1
    40    47    46    1
    41    43    40    1
    42    67    66    2
    43    66    65    1
    44    59    60    1
    45    59    62    1
    46    61    60    2
    47    42    41    2
    48    60    64   am
    49    41    45   am
    50    41    40    1
    51    46    45    1
    52    64    65    1
    53    40    39    1
    54    63    62    1
    55    25    24    2
    56    65    68    1
    57    75    76    1
    58    29    30    1
    59    76    77    1
    60    24    23    1
    61    39    37   am
    62    68    70    1
    63    68    69    1
    64    30    31    1
    65    30    33    1
    66    31    35   am
    67    31    32    2
    68    33    34    1
    69    28    26    1
    70    77    78    1
    71    37    38    2
    72    37    36    1
    73    35    36    1
    74    23    26    1
    75    23    22    1
    76    78    79    2
    77    26    27    1
    78    79    81    1
    79    79    80    1
    80     9     7   ar
    81     9    10   ar
    82    12    10   ar
    83    12    14   ar
    84     7     6   ar
    85    10     8   ar
    86    18    17    2
    87    17    16    1
    88    14    13   ar
    89     1     2    1
    90     6     8   ar
    91     6     5    1
    92     8    11   ar
    93    13    11   ar
    94    16    19    1
    95    16    15    1
    96     2     5    1
    97     2     3    1
    98    19    21    1
    99    19    20    1
   100     3     4    2
