@<TRIPOS>MOLECULE
tmp/2awnB00.pdb
 96 92 0 0 0
SMALL
GASTEIGER

@<TRIPOS>ATOM
      1  N         -5.3210   -8.3970   45.4610 N.3    12  TRP12      -0.1241
      2  CA        -4.2470   -8.9650   46.2730 C.3    12  TRP12       0.1605
      3  C         -4.2540   -8.1960   47.5790 C.2    12  TRP12       0.2264
      4  O         -3.7410   -7.0790   47.6600 O.2    12  TRP12      -0.2867
      5  CB        -2.8920   -8.7910   45.5830 C.3    12  TRP12       0.0550
      6  CG        -2.7960   -9.5250   44.2990 C.ar   12  TRP12       0.0003
      7  CD1       -2.9140   -9.0070   43.0350 C.ar   12  TRP12       0.0946
      8  CD2       -2.6190  -10.9290   44.1410 C.ar   12  TRP12       0.0152
      9  NE1       -2.8240  -10.0110   42.0990 N.ar   12  TRP12      -0.2442
     10  CE2       -2.6440  -11.2020   42.7520 C.ar   12  TRP12       0.0810
     11  CE3       -2.4430  -11.9880   45.0380 C.ar   12  TRP12       0.0012
     12  CZ2       -2.5000  -12.4940   42.2410 C.ar   12  TRP12       0.0191
     13  CZ3       -2.3000  -13.2740   44.5310 C.ar   12  TRP12       0.0001
     14  CH2       -2.3300  -13.5150   43.1430 C.ar   12  TRP12       0.0015
     15  N         -5.4490   -4.5280   47.4610 N.3    15  VAL15      -0.1245
     16  CA        -5.1720   -3.9710   46.1410 C.3    15  VAL15       0.1561
     17  C         -5.9930   -4.6710   45.0500 C.2    15  VAL15       0.2260
     18  O         -6.0250   -5.8980   44.9640 O.2    15  VAL15      -0.2867
     19  CB        -3.6750   -4.0800   45.8140 C.3    15  VAL15       0.0252
     20  CG1       -3.4140   -3.6530   44.3800 C.3    15  VAL15       0.0019
     21  CG2       -2.8800   -3.2060   46.7680 C.3    15  VAL15       0.0019
     22  N         -6.4630   -5.3780   41.1580 N.3    17  VAL17      -0.1245
     23  CA        -5.6860   -5.3040   39.9340 C.3    17  VAL17       0.1561
     24  C         -6.5750   -5.4680   38.7090 C.2    17  VAL17       0.2260
     25  O         -6.1870   -5.1070   37.6010 O.2    17  VAL17      -0.2867
     26  CB        -4.5460   -6.3550   39.9110 C.3    17  VAL17       0.0252
     27  CG1       -3.5770   -6.0880   41.0590 C.3    17  VAL17       0.0019
     28  CG2       -5.1180   -7.7550   39.9850 C.3    17  VAL17       0.0019
     29  N          2.5280   -1.5190   31.1100 N.3    37  SER37      -0.1202
     30  CA         2.9130   -2.5830   32.0230 C.3    37  SER37       0.2020
     31  C          2.3520   -2.2300   33.3960 C.2    37  SER37       0.2619
     32  O          2.4980   -1.1020   33.8660 O.2    37  SER37      -0.2717
     33  CB         4.4320   -2.7080   32.0980 C.3    37  SER37       0.2103
     34  OG         4.9530   -3.2990   30.9160 O.3    37  SER37      -0.2182
     35  N          1.6920   -3.1920   34.0230 N.am   38  GLY38      -0.1942
     36  CA         1.1100   -2.9650   35.3260 C.3    38  GLY38       0.2014
     37  C         -0.3970   -2.7680   35.3040 C.2    38  GLY38       0.2639
     38  O         -1.0020   -2.6750   36.3670 O.2    38  GLY38      -0.2714
     39  N         -1.0170   -2.7270   34.1220 N.am   39  CYS39      -0.1953
     40  CA        -2.4630   -2.5140   34.0650 C.3    39  CYS39       0.1843
     41  C         -3.2860   -3.7600   34.3230 C.2    39  CYS39       0.2626
     42  O         -4.5020   -3.6800   34.4340 O.2    39  CYS39      -0.2714
     43  CB        -2.8890   -1.8740   32.7250 C.3    39  CYS39       0.0997
     44  SG        -2.6310   -2.8310   31.2030 S.3    39  CYS39      -0.0797
     45  N         -2.6240   -4.9090   34.4280 N.am   40  GLY40      -0.1940
     46  CA        -3.3260   -6.1500   34.6890 C.3    40  GLY40       0.2014
     47  C         -3.5710   -7.0680   33.4980 C.2    40  GLY40       0.2639
     48  O         -4.4960   -7.8910   33.5320 O.2    40  GLY40      -0.2714
     49  N         -2.7680   -6.9480   32.4430 N.am   41  LYS41      -0.1963
     50  CA        -2.9620   -7.8040   31.2750 C.3    41  LYS41       0.1728
     51  C         -2.7020   -9.2860   31.5550 C.2    41  LYS41       0.2617
     52  O         -3.5640  -10.1140   31.3030 O.2    41  LYS41      -0.2715
     53  CB        -2.0910   -7.3220   30.1060 C.3    41  LYS41       0.0311
     54  CG        -2.5040   -5.9600   29.5710 C.3    41  LYS41       0.0038
     55  CD        -1.5920   -5.4760   28.4320 C.3    41  LYS41       0.0206
     56  CE        -0.0950   -5.5300   28.7810 C.3    41  LYS41       0.1093
     57  NZ         0.3220   -4.5730   29.8370 N.3    41  LYS41      -0.1314
     58  N         -1.5280   -9.6220   32.0830 N.am   42  SER42      -0.1936
     59  CA        -1.2050  -11.0250   32.3850 C.3    42  SER42       0.2055
     60  C         -2.1090  -11.6590   33.4500 C.2    42  SER42       0.2643
     61  O         -2.4680  -12.8310   33.3410 O.2    42  SER42      -0.2714
     62  CB         0.2370  -11.1580   32.8590 C.3    42  SER42       0.2130
     63  OG         1.1480  -10.8390   31.8270 O.3    42  SER42      -0.2179
     64  N         -2.4520  -10.8910   34.4840 N.am   43  THR43      -0.1950
     65  CA        -3.3090  -11.3890   35.5650 C.3    43  THR43       0.1897
     66  C         -4.6490  -11.8070   34.9660 C.2    43  THR43       0.2313
     67  O         -5.2340  -12.8190   35.3300 O.2    43  THR43      -0.2863
     68  CB        -3.5560  -10.2910   36.6510 C.3    43  THR43       0.1794
     69  OG1       -2.3130   -9.8940   37.2410 O.3    43  THR43      -0.2208
     70  CG2       -4.4700  -10.8070   37.7340 C.3    43  THR43       0.0378
     71  N         -4.6100  -18.2980   38.2030 N.3    52  GLU52      -0.1245
     72  CA        -4.7980  -17.3420   39.2870 C.3    52  GLU52       0.1567
     73  C         -6.2770  -17.5010   39.6280 C.2    52  GLU52       0.2260
     74  O         -7.0850  -17.8200   38.7540 O.2    52  GLU52      -0.2867
     75  CB        -4.5300  -15.9030   38.8220 C.3    52  GLU52       0.0388
     76  CG        -3.1190  -15.6250   38.3010 C.3    52  GLU52       0.1160
     77  CD        -2.0510  -15.5300   39.3950 C.2    52  GLU52       0.3649
     78  OE1       -2.2680  -16.0420   40.5170 O.co2  52  GLU52      -0.2457
     79  OE2       -0.9780  -14.9470   39.1140 O.co2  52  GLU52      -0.2457
     80  N          0.2840  -14.0340   25.7470 N.3   157  ASP157     -0.1225
     81  CA         0.7400  -12.9200   26.5550 C.3   157  ASP157      0.1805
     82  C          2.0530  -12.3730   25.9740 C.2   157  ASP157      0.2597
     83  O          3.0980  -12.9640   26.1990 O.2   157  ASP157     -0.2718
     84  CB         0.9850  -13.4130   27.9800 C.3   157  ASP157      0.1424
     85  CG         1.1040  -12.2850   28.9770 C.2   157  ASP157      0.3668
     86  OD1        1.4960  -11.1660   28.5840 O.co2 157  ASP157     -0.2456
     87  OD2        0.8150  -12.5260   30.1680 O.co2 157  ASP157     -0.2456
     88  N          1.9810  -11.2490   25.2520 N.am  158  GLU158     -0.1979
     89  CA         3.1520  -10.5900   24.6330 C.3   158  GLU158      0.1602
     90  C          4.1580  -11.5970   24.0650 C.2   158  GLU158      0.2287
     91  O          5.3440  -11.5380   24.3750 O.2   158  GLU158     -0.2864
     92  CB         3.8620   -9.6860   25.6630 C.3   158  GLU158      0.0415
     93  CG         2.9120   -9.0310   26.6760 C.3   158  GLU158      0.1163
     94  CD         3.3630   -7.6350   27.1460 C.2   158  GLU158      0.3649
     95  OE1        3.4410   -6.7190   26.2950 O.co2 158  GLU158     -0.2457
     96  OE2        3.6260   -7.4520   28.3600 O.co2 158  GLU158     -0.2457
@<TRIPOS>BOND
     1    90    91    2
     2    90    89    1
     3    89    88    1
     4    89    92    1
     5    88    82   am
     6    92    93    1
     7    80    81    1
     8    82    83    2
     9    82    81    1
    10    95    94   ar
    11    81    84    1
    12    93    94    1
    13    94    96   ar
    14    84    85    1
    15    55    56    1
    16    55    54    1
    17    86    85   ar
    18    56    57    1
    19    85    87   ar
    20    54    53    1
    21    53    50    1
    22    34    33    1
    23    29    30    1
    24    44    43    1
    25    50    51    1
    26    50    49    1
    27    52    51    2
    28    51    58   am
    29    63    62    1
    30    30    33    1
    31    30    31    1
    32    58    59    1
    33    59    62    1
    34    59    60    1
    35    49    47   am
    36    43    40    1
    37    61    60    2
    38    31    32    2
    39    31    35   am
    40    60    64   am
    41    47    48    2
    42    47    46    1
    43    35    36    1
    44    40    39    1
    45    40    41    1
    46    39    37   am
    47    41    45   am
    48    41    42    2
    49    45    46    1
    50    64    65    1
    51    66    67    2
    52    66    65    1
    53    37    36    1
    54    37    38    2
    55    65    68    1
    56    68    69    1
    57    68    70    1
    58    25    24    2
    59    71    72    1
    60    76    75    1
    61    76    77    1
    62    24    23    1
    63    74    73    2
    64    75    72    1
    65    79    77   ar
    66    72    73    1
    67    77    78   ar
    68    26    23    1
    69    26    28    1
    70    26    27    1
    71    23    22    1
    72     9    10   ar
    73     9     7   ar
    74    12    10   ar
    75    12    14   ar
    76    10     8   ar
    77     7     6   ar
    78    14    13   ar
    79     8     6   ar
    80     8    11   ar
    81     6     5    1
    82    20    19    1
    83    13    11   ar
    84    18    17    2
    85    17    16    1
    86     1     2    1
    87     5     2    1
    88    19    16    1
    89    19    21    1
    90    16    15    1
    91     2     3    1
    92     3     4    2
