@<TRIPOS>MOLECULE
tmp/2awwA00.pdb
 113 108 0 0 0
SMALL
GASTEIGER

@<TRIPOS>ATOM
      1  N         28.9600    2.5260   30.8650 N.3     9  LYS9       -0.1245
      2  CA        29.2720    3.0220   29.5720 C.3     9  LYS9        0.1561
      3  C         30.7920    2.8790   29.4100 C.2     9  LYS9        0.2260
      4  O         31.5610    3.3660   30.2300 O.2     9  LYS9       -0.2867
      5  CB        28.7810    4.4630   29.4580 C.3     9  LYS9        0.0271
      6  CG        28.5470    4.9230   28.0410 C.3     9  LYS9        0.0035
      7  CD        27.7360    6.1980   27.9760 C.3     9  LYS9        0.0206
      8  CE        26.3460    5.9960   28.5120 C.3     9  LYS9        0.1093
      9  NZ        25.6140    7.3070   28.5890 N.3     9  LYS9       -0.1314
     10  N         33.7860    3.7080   24.1840 N.3    12  LYS12      -0.1231
     11  CA        33.1130    3.7470   22.8730 C.3    12  LYS12       0.1693
     12  C         31.5880    3.8190   22.9480 C.2    12  LYS12       0.2593
     13  O         30.9010    3.6220   21.9400 O.2    12  LYS12      -0.2718
     14  CB        33.5180    2.5380   22.0470 C.3    12  LYS12       0.0285
     15  CG        34.2180    2.8630   20.7760 C.3    12  LYS12       0.0035
     16  CD        34.1200    1.6730   19.8370 C.3    12  LYS12       0.0206
     17  CE        34.8120    1.9540   18.5320 C.3    12  LYS12       0.1093
     18  NZ        35.0720    0.6820   17.7960 N.3    12  LYS12      -0.1314
     19  N         31.0580    4.1010   24.1330 N.am   13  GLY13      -0.1942
     20  CA        29.6300    4.2370   24.3040 C.3    13  GLY13       0.2014
     21  C         29.0670    2.9690   24.9040 C.2    13  GLY13       0.2639
     22  O         29.8320    2.1090   25.3830 O.2    13  GLY13      -0.2714
     23  N         27.7340    2.8600   24.8830 N.am   14  LEU14      -0.1963
     24  CA        27.0000    1.6830   25.3880 C.3    14  LEU14       0.1728
     25  C         27.1270    0.4980   24.4440 C.2    14  LEU14       0.2617
     26  O         26.8830   -0.6410   24.8360 O.2    14  LEU14      -0.2715
     27  CB        25.5350    2.0150   25.6120 C.3    14  LEU14       0.0311
     28  CG        25.1310    2.7950   26.8660 C.3    14  LEU14       0.0022
     29  CD1       23.6690    3.1600   26.7730 C.3    14  LEU14       0.0001
     30  CD2       25.3670    1.9850   28.1310 C.3    14  LEU14       0.0001
     31  N         27.5170    0.7740   23.2050 N.am   15  GLY15      -0.1940
     32  CA        27.7950   -0.2680   22.2040 C.3    15  GLY15       0.2014
     33  C         26.5920   -0.9540   21.5620 C.2    15  GLY15       0.2639
     34  O         26.6290   -2.1550   21.2740 O.2    15  GLY15      -0.2714
     35  N         25.5040   -0.2130   21.3710 N.am   16  PHE16      -0.1959
     36  CA        24.3510   -0.7120   20.6080 C.3    16  PHE16       0.1771
     37  C         23.6550    0.3650   19.7880 C.2    16  PHE16       0.2620
     38  O         23.7500    1.5640   20.1040 O.2    16  PHE16      -0.2715
     39  CB        23.3740   -1.5130   21.4820 C.3    16  PHE16       0.0574
     40  CG        22.5500   -0.7020   22.4910 C.ar   16  PHE16      -0.0200
     41  CD1       21.3530   -0.0920   22.1150 C.ar   16  PHE16      -0.0042
     42  CD2       22.8950   -0.6930   23.8430 C.ar   16  PHE16      -0.0042
     43  CE1       20.5500    0.5850   23.0310 C.ar   16  PHE16      -0.0003
     44  CE2       22.0970   -0.0150   24.7870 C.ar   16  PHE16      -0.0003
     45  CZ        20.9140    0.6230   24.3820 C.ar   16  PHE16      -0.0000
     46  N         22.9930   -0.0790   18.7110 N.am   17  SER17      -0.1936
     47  CA        22.2320    0.7760   17.8340 C.3    17  SER17       0.2055
     48  C         20.7340    0.5500   18.1010 C.2    17  SER17       0.2643
     49  O         20.3480   -0.5480   18.5170 O.2    17  SER17      -0.2714
     50  CB        22.6240    0.4670   16.3980 C.3    17  SER17       0.2130
     51  OG        24.0380    0.7480   16.1550 O.3    17  SER17      -0.2179
     52  N         19.9380    1.6270   17.9680 N.am   18  ILE18      -0.1963
     53  CA        18.4710    1.5920   17.9880 C.3    18  ILE18       0.1727
     54  C         17.7970    2.0650   16.6830 C.2    18  ILE18       0.2616
     55  O         18.3830    2.7980   15.8810 O.2    18  ILE18      -0.2715
     56  CB        17.8300    2.2970   19.2170 C.3    18  ILE18       0.0290
     57  CG1       18.1920    3.8040   19.2910 C.3    18  ILE18       0.0022
     58  CG2       18.1480    1.4990   20.4970 C.3    18  ILE18       0.0023
     59  CD1       17.2760    4.5890   20.2640 C.3    18  ILE18       0.0001
     60  N         16.5910    1.5650   16.4700 N.am   19  ALA19      -0.1977
     61  CA        15.6940    1.8930   15.3410 C.3    19  ALA19       0.1597
     62  C         14.3330    1.9770   15.9720 C.2    19  ALA19       0.2287
     63  O         14.1840    1.5330   17.0880 O.2    19  ALA19      -0.2864
     64  CB        15.7110    0.7570   14.3420 C.3    19  ALA19       0.0319
     65  N          8.4110    6.4870   12.9190 N.3    24  ASN24      -0.1240
     66  CA         9.6570    5.8500   12.4440 C.3    24  ASN24       0.1653
     67  C          9.5980    4.3620   12.6420 C.2    24  ASN24       0.2266
     68  O         10.6420    3.6890   12.6940 O.2    24  ASN24      -0.2867
     69  CB        10.8650    6.3920   13.2010 C.3    24  ASN24       0.1155
     70  CG        12.1750    6.0460   12.5210 C.2    24  ASN24       0.2627
     71  OD1       12.2700    6.1280   11.2990 O.2    24  ASN24      -0.2716
     72  ND2       13.1980    5.6490   13.3110 N.am   24  ASN24      -0.0877
     73  N         19.0460   -2.9640   17.1130 N.3    36  THR36      -0.1218
     74  CA        19.3320   -3.5390   15.8100 C.3    36  THR36       0.1862
     75  C         20.7540   -3.9970   15.6120 C.2    36  THR36       0.2287
     76  O         21.1010   -4.5480   14.5270 O.2    36  THR36      -0.2866
     77  CB        19.0810   -2.4960   14.6920 C.3    36  THR36       0.1770
     78  OG1       19.8850   -1.3410   14.9410 O.3    36  THR36      -0.2211
     79  CG2       17.6020   -2.1020   14.6570 C.3    36  THR36       0.0375
     80  N         11.9300    8.5680   17.7380 N.3    69  HIS69      -0.1241
     81  CA        13.3110    8.1230   17.7230 C.3    69  HIS69       0.1621
     82  C         14.2210    9.1060   18.4610 C.2    69  HIS69       0.2264
     83  O         15.0780    8.7430   19.2900 O.2    69  HIS69      -0.2867
     84  CB        13.7840    7.9570   16.3090 C.3    69  HIS69       0.0745
     85  CG        15.0930    7.2390   16.1730 C.ar   69  HIS69       0.0817
     86  ND1       15.2650    5.9230   16.5460 N.ar   69  HIS69      -0.2268
     87  CD2       16.2460    7.6080   15.5640 C.ar   69  HIS69       0.1154
     88  CE1       16.4820    5.5280   16.2200 C.ar   69  HIS69       0.1986
     89  NE2       17.0970    6.5320   15.6200 N.ar   69  HIS69      -0.2212
     90  N         16.9100    8.5290   21.4060 N.3    73  VAL73      -0.1245
     91  CA        18.3130    8.8510   21.2610 C.3    73  VAL73       0.1561
     92  C         18.7830    9.8940   22.3010 C.2    73  VAL73       0.2260
     93  O         19.8270    9.7460   22.9550 O.2    73  VAL73      -0.2867
     94  CB        18.5730    9.3890   19.8770 C.3    73  VAL73       0.0252
     95  CG1       19.9830    9.8830   19.7430 C.3    73  VAL73       0.0019
     96  CG2       18.3030    8.3140   18.8290 C.3    73  VAL73       0.0019
     97  N         18.8810    8.1930   25.6730 N.3    76  LEU76      -0.1231
     98  CA        19.9590    7.2190   25.7510 C.3    76  LEU76       0.1693
     99  C         21.3320    7.8530   25.8820 C.2    76  LEU76       0.2591
    100  O         22.2820    7.1950   26.3400 O.2    76  LEU76      -0.2718
    101  CB        19.9040    6.2630   24.5730 C.3    76  LEU76       0.0284
    102  CG        19.1100    5.0320   24.9690 C.3    76  LEU76       0.0019
    103  CD1       18.3870    4.3850   23.7760 C.3    76  LEU76       0.0001
    104  CD2       20.0420    4.0460   25.6960 C.3    76  LEU76       0.0001
    105  N         21.4200    9.1260   25.4930 N.am   77  LYS77      -0.1980
    106  CA        22.6930    9.8800   25.3890 C.3    77  LYS77       0.1596
    107  C         22.8380   10.8210   26.5600 C.2    77  LYS77       0.2287
    108  O         23.9150   11.2810   26.8770 O.2    77  LYS77      -0.2864
    109  CB        22.7220   10.6940   24.1130 C.3    77  LYS77       0.0298
    110  CG        22.7770    9.8260   22.9010 C.3    77  LYS77       0.0038
    111  CD        23.3820   10.5350   21.7220 C.3    77  LYS77       0.0206
    112  CE        23.6750    9.5160   20.6070 C.3    77  LYS77       0.1093
    113  NZ        23.5590   10.1430   19.2510 N.3    77  LYS77      -0.1314
@<TRIPOS>BOND
     1    71    70    2
     2    66    67    1
     3    66    65    1
     4    66    69    1
     5    70    69    1
     6    70    72   am
     7    67    68    2
     8    64    61    1
     9    76    75    2
    10    79    77    1
    11    77    78    1
    12    77    74    1
    13    61    62    1
    14    61    60    1
    15    87    89   ar
    16    87    85   ar
    17    75    74    1
    18    89    88   ar
    19    74    73    1
    20    55    54    2
    21    62    63    2
    22    51    50    1
    23    85    84    1
    24    85    86   ar
    25    88    86   ar
    26    84    81    1
    27    50    47    1
    28    60    54   am
    29    54    53    1
    30    81    80    1
    31    81    82    1
    32    18    17    1
    33    47    48    1
    34    47    46    1
    35    52    53    1
    36    52    48   am
    37    53    56    1
    38    48    49    2
    39    82    83    2
    40    17    16    1
    41    46    37   am
    42    96    94    1
    43    56    57    1
    44    56    58    1
    45   113   112    1
    46    57    59    1
    47    95    94    1
    48    37    38    2
    49    37    36    1
    50    16    15    1
    51    94    91    1
    52   112   111    1
    53    36    35    1
    54    36    39    1
    55    15    14    1
    56    91    90    1
    57    91    92    1
    58    34    33    2
    59    35    33   am
    60    39    40    1
    61    33    32    1
    62   111   110    1
    63    13    12    2
    64    14    11    1
    65    41    40   ar
    66    41    43   ar
    67    32    31    1
    68    92    93    2
    69    40    42   ar
    70    11    12    1
    71    11    10    1
    72   110   109    1
    73    12    19   am
    74    43    45   ar
    75    31    25   am
    76   103   102    1
    77    42    44   ar
    78   109   106    1
    79    19    20    1
    80    20    21    1
    81    45    44   ar
    82    25    26    2
    83    25    24    1
    84   101   102    1
    85   101    98    1
    86    23    21   am
    87    23    24    1
    88    21    22    2
    89   102   104    1
    90    24    27    1
    91   106   105    1
    92   106   107    1
    93   105    99   am
    94    27    28    1
    95    97    98    1
    96    98    99    1
    97    99   100    2
    98   107   108    2
    99    29    28    1
   100    28    30    1
   101     7     6    1
   102     7     8    1
   103     6     5    1
   104     8     9    1
   105     3     2    1
   106     3     4    2
   107     5     2    1
   108     2     1    1
