@<TRIPOS>MOLECULE
tmp/2awxB01.pdb
 101 97 0 0 0
SMALL
GASTEIGER

@<TRIPOS>ATOM
      1  N         19.4430    3.5220   40.2160 N.3     8  LYS8       -0.1245
      2  CA        19.3470    4.3650   41.4090 C.3     8  LYS8        0.1561
      3  C         20.0130    5.7170   41.1710 C.2     8  LYS8        0.2260
      4  O         21.1100    5.7820   40.5980 O.2     8  LYS8       -0.2867
      5  CB        19.9510    3.6500   42.6170 C.3     8  LYS8        0.0271
      6  CG        19.7080    4.3670   43.9140 C.3     8  LYS8        0.0035
      7  CD        20.5380    3.7500   45.0180 C.3     8  LYS8        0.0206
      8  CE        19.7920    2.6240   45.6640 C.3     8  LYS8        0.1093
      9  NZ        20.4700    2.2220   46.9390 N.3     8  LYS8       -0.1314
     10  N         19.5410   10.8420   44.2960 N.3    11  LYS11      -0.1231
     11  CA        18.5730   10.8480   45.3810 C.3    11  LYS11       0.1693
     12  C         17.8180    9.5260   45.5750 C.2    11  LYS11       0.2593
     13  O         16.6810    9.5240   46.0500 O.2    11  LYS11      -0.2718
     14  CB        17.6020   12.0160   45.2100 C.3    11  LYS11       0.0285
     15  CG        18.2150   13.3970   45.5180 C.3    11  LYS11       0.0035
     16  CD        18.5070   13.5670   47.0180 C.3    11  LYS11       0.0206
     17  CE        19.9820   13.9320   47.3280 C.3    11  LYS11       0.1093
     18  NZ        20.9570   12.7760   47.3980 N.3    11  LYS11      -0.1314
     19  N         18.4640    8.4060   45.2490 N.am   12  GLY12      -0.1942
     20  CA        17.8900    7.0860   45.4940 C.3    12  GLY12       0.2014
     21  C         16.9890    6.6540   44.3550 C.2    12  GLY12       0.2639
     22  O         17.1860    7.0690   43.2150 O.2    12  GLY12      -0.2714
     23  N         15.9850    5.8310   44.6660 N.am   13  LEU13      -0.1963
     24  CA        15.0520    5.3280   43.6480 C.3    13  LEU13       0.1728
     25  C         13.8770    6.2720   43.3840 C.2    13  LEU13       0.2617
     26  O         13.2080    6.1660   42.3420 O.2    13  LEU13      -0.2715
     27  CB        14.5050    3.9550   44.0420 C.3    13  LEU13       0.0311
     28  CG        15.5370    2.8420   44.2240 C.3    13  LEU13       0.0022
     29  CD1       14.9060    1.7190   44.9680 C.3    13  LEU13       0.0001
     30  CD2       16.0410    2.4120   42.8590 C.3    13  LEU13       0.0001
     31  N         13.6280    7.1790   44.3230 N.am   14  GLY14      -0.1940
     32  CA        12.5780    8.2030   44.1700 C.3    14  GLY14       0.2014
     33  C         11.1260    7.7530   44.3900 C.2    14  GLY14       0.2639
     34  O         10.2000    8.1310   43.6530 O.2    14  GLY14      -0.2714
     35  N         10.9030    6.9380   45.4100 N.am   15  PHE15      -0.1959
     36  CA         9.5270    6.6670   45.8420 C.3    15  PHE15       0.1771
     37  C          9.4520    6.4000   47.3440 C.2    15  PHE15       0.2620
     38  O         10.4700    6.1390   47.9760 O.2    15  PHE15      -0.2715
     39  CB         8.9030    5.5210   45.0160 C.3    15  PHE15       0.0574
     40  CG         9.6020    4.1890   45.1850 C.ar   15  PHE15      -0.0200
     41  CD1        9.2330    3.3110   46.1990 C.ar   15  PHE15      -0.0042
     42  CD2       10.6100    3.7920   44.2970 C.ar   15  PHE15      -0.0042
     43  CE1        9.8860    2.0620   46.3440 C.ar   15  PHE15      -0.0003
     44  CE2       11.2360    2.5560   44.4340 C.ar   15  PHE15      -0.0003
     45  CZ        10.8590    1.6880   45.4440 C.ar   15  PHE15      -0.0000
     46  N          8.2420    6.5420   47.8930 N.am   16  SER16      -0.1936
     47  CA         7.9610    6.3130   49.2850 C.3    16  SER16       0.2055
     48  C          7.0720    5.0820   49.4020 C.2    16  SER16       0.2642
     49  O          6.2970    4.7620   48.4780 O.2    16  SER16      -0.2714
     50  CB         7.2490    7.5170   49.9150 C.3    16  SER16       0.2130
     51  OG         8.1030    8.6680   49.9130 O.3    16  SER16      -0.2179
     52  N          7.1720    4.4250   50.5520 N.am   17  ILE17      -0.1977
     53  CA         6.4110    3.2140   50.8200 C.3    17  ILE17       0.1596
     54  C          5.7090    3.3160   52.1780 C.2    17  ILE17       0.2287
     55  O          6.0940    4.1130   53.0340 O.2    17  ILE17      -0.2864
     56  CB         7.2710    1.9120   50.7580 C.3    17  ILE17       0.0276
     57  CG1        8.3940    1.9360   51.8240 C.3    17  ILE17       0.0022
     58  CG2        7.7980    1.6820   49.3350 C.3    17  ILE17       0.0022
     59  CD1        9.0170    0.5870   52.1530 C.3    17  ILE17       0.0001
     60  N          8.4840   10.4580   43.5930 N.3    38  ILE38      -0.1245
     61  CA         9.1350   11.7560   43.7920 C.3    38  ILE38       0.1561
     62  C          9.4300   12.3880   42.4350 C.2    38  ILE38       0.2260
     63  O         10.0230   11.7420   41.5570 O.2    38  ILE38      -0.2867
     64  CB        10.4300   11.6160   44.6520 C.3    38  ILE38       0.0252
     65  CG1       10.1240   10.8230   45.9320 C.3    38  ILE38       0.0019
     66  CG2       11.0380   12.9820   44.9720 C.3    38  ILE38       0.0019
     67  CD1        9.0640   11.4550   46.8400 C.3    38  ILE38       0.0001
     68  N          7.8150   -3.4280   58.0900 N.3    68  HIS68      -0.1241
     69  CA         8.2250   -2.2260   57.3920 C.3    68  HIS68       0.1621
     70  C          9.7430   -2.0520   57.4430 C.2    68  HIS68       0.2264
     71  O         10.3700   -1.6270   56.4620 O.2    68  HIS68      -0.2867
     72  CB         7.5350   -0.9930   57.9760 C.3    68  HIS68       0.0745
     73  CG         7.6920    0.2160   57.1170 C.ar   68  HIS68       0.0817
     74  ND1        6.9510    0.4110   55.9700 N.ar   68  HIS68      -0.2268
     75  CD2        8.5250    1.2820   57.2140 C.ar   68  HIS68       0.1154
     76  CE1        7.3120    1.5530   55.4050 C.ar   68  HIS68       0.1986
     77  NE2        8.2650    2.0980   56.1390 N.ar   68  HIS68      -0.2212
     78  N         12.2090   -1.5900   54.3970 N.3    72  VAL72      -0.1245
     79  CA        13.1370   -0.4510   54.3920 C.3    72  VAL72       0.1561
     80  C         14.6040   -0.9050   54.2730 C.2    72  VAL72       0.2260
     81  O         15.3720   -0.3360   53.4860 O.2    72  VAL72      -0.2867
     82  CB        12.9230    0.4570   55.6380 C.3    72  VAL72       0.0252
     83  CG1       14.1000    1.4090   55.8410 C.3    72  VAL72       0.0019
     84  CG2       11.6220    1.2300   55.4980 C.3    72  VAL72       0.0019
     85  N         15.3510   -1.9900   50.6880 N.3    75  LEU75      -0.1231
     86  CA        15.4510   -0.8380   49.7840 C.3    75  LEU75       0.1693
     87  C         16.7390   -0.0550   49.9840 C.2    75  LEU75       0.2591
     88  O         17.3670    0.3840   49.0210 O.2    75  LEU75      -0.2718
     89  CB        14.2210    0.0710   49.9410 C.3    75  LEU75       0.0284
     90  CG        12.9440   -0.5110   49.3090 C.3    75  LEU75       0.0019
     91  CD1       11.6930    0.1850   49.8380 C.3    75  LEU75       0.0001
     92  CD2       13.0290   -0.4130   47.7870 C.3    75  LEU75       0.0001
     93  N         17.1220    0.1140   51.2440 N.am   76  LYS76      -0.1980
     94  CA        18.3850    0.7670   51.6140 C.3    76  LYS76       0.1596
     95  C         19.5980   -0.0400   51.1680 C.2    76  LYS76       0.2287
     96  O         20.6430    0.5180   50.8440 O.2    76  LYS76      -0.2864
     97  CB        18.4490    0.9630   53.1330 C.3    76  LYS76       0.0298
     98  CG        17.5310    2.0460   53.5980 C.3    76  LYS76       0.0038
     99  CD        17.9860    2.6390   54.9060 C.3    76  LYS76       0.0206
    100  CE        17.5740    1.7750   56.0880 C.3    76  LYS76       0.1093
    101  NZ        18.4390    0.5620   56.2280 N.3    76  LYS76      -0.1314
@<TRIPOS>BOND
     1     1     2    1
     2     4     3    2
     3     3     2    1
     4     2     5    1
     5    63    62    2
     6    26    25    2
     7    62    61    1
     8     5     6    1
     9    30    28    1
    10    22    21    2
    11    25    24    1
    12    25    31   am
    13    60    61    1
    14    24    27    1
    15    24    23    1
    16    34    33    2
    17    61    64    1
    18     6     7    1
    19    27    28    1
    20    32    31    1
    21    32    33    1
    22    28    29    1
    23    10    11    1
    24    42    44   ar
    25    42    40   ar
    26    21    23   am
    27    21    20    1
    28    33    35   am
    29    44    45   ar
    30    64    66    1
    31    64    65    1
    32    39    40    1
    33    39    36    1
    34     7     8    1
    35    40    41   ar
    36    14    11    1
    37    14    15    1
    38    19    20    1
    39    19    12   am
    40    11    12    1
    41    35    36    1
    42    45    43   ar
    43    15    16    1
    44    12    13    2
    45     8     9    1
    46    36    37    1
    47    65    67    1
    48    41    43   ar
    49    16    17    1
    50    17    18    1
    51    37    46   am
    52    37    38    2
    53    92    90    1
    54    46    47    1
    55    49    48    2
    56    88    87    2
    57    47    48    1
    58    47    50    1
    59    90    91    1
    60    90    89    1
    61    58    56    1
    62    48    52   am
    63    86    89    1
    64    86    87    1
    65    86    85    1
    66    51    50    1
    67    87    93   am
    68    52    53    1
    69    56    53    1
    70    56    57    1
    71    53    54    1
    72    96    95    2
    73    95    94    1
    74    93    94    1
    75    94    97    1
    76    57    59    1
    77    54    55    2
    78    97    98    1
    79    81    80    2
    80    98    99    1
    81    80    79    1
    82    79    78    1
    83    79    82    1
    84    99   100    1
    85    76    74   ar
    86    76    77   ar
    87    84    82    1
    88    82    83    1
    89    74    73   ar
    90   100   101    1
    91    77    75   ar
    92    71    70    2
    93    73    75   ar
    94    73    72    1
    95    69    70    1
    96    69    72    1
    97    69    68    1
