@<TRIPOS>MOLECULE
tmp/2awzA00.pdb
 159 150 0 0 0
SMALL
GASTEIGER

@<TRIPOS>ATOM
      1  N         12.0580   42.0500   73.1520 N.3   193  PHE193     -0.1241
      2  CA        10.8270   41.6270   72.4860 C.3   193  PHE193      0.1605
      3  C         10.7930   41.7840   70.9640 C.2   193  PHE193      0.2264
      4  O          9.7780   41.4830   70.3320 O.2   193  PHE193     -0.2867
      5  CB         9.6220   42.3530   73.0890 C.3   193  PHE193      0.0534
      6  CG         9.3490   41.9960   74.5210 C.ar  193  PHE193     -0.0203
      7  CD1        9.4730   42.9530   75.5270 C.ar  193  PHE193     -0.0042
      8  CD2        8.9480   40.7090   74.8630 C.ar  193  PHE193     -0.0042
      9  CE1        9.1970   42.6310   76.8600 C.ar  193  PHE193     -0.0003
     10  CE2        8.6710   40.3760   76.1930 C.ar  193  PHE193     -0.0003
     11  CZ         8.7940   41.3370   77.1930 C.ar  193  PHE193     -0.0000
     12  N         12.8000   33.5620   69.2080 N.3   197  PRO197     -0.2116
     13  CA        13.7940   32.8350   70.0070 C.3   197  PRO197      0.1372
     14  C         15.1590   32.7130   69.3040 C.2   197  PRO197      0.2244
     15  O         16.1980   32.9920   69.8970 O.2   197  PRO197     -0.2868
     16  CB        13.1390   31.4680   70.2010 C.3   197  PRO197      0.0268
     17  CG        11.6790   31.7890   70.2280 C.3   197  PRO197      0.0207
     18  CD        11.5260   32.8220   69.1270 C.3   197  PRO197      0.0892
     19  N         17.0480   35.8880   69.3080 N.3   200  ARG200     -0.1245
     20  CA        17.5450   36.1490   70.6550 C.3   200  ARG200      0.1563
     21  C         18.8660   35.3930   70.8450 C.2   200  ARG200      0.2260
     22  O         19.8530   35.9540   71.3160 O.2   200  ARG200     -0.2867
     23  CB        16.5210   35.7040   71.7130 C.3   200  ARG200      0.0307
     24  CG        16.9980   35.9320   73.1540 C.3   200  ARG200      0.0489
     25  CD        16.0020   35.4040   74.1880 C.3   200  ARG200      0.2205
     26  NE        16.4930   35.6170   75.5450 N.pl3 200  ARG200     -0.0865
     27  CZ        16.2420   36.7030   76.2740 C.cat 200  ARG200      0.5346
     28  NH1       15.4940   37.6820   75.7820 N.pl3 200  ARG200      0.1354
     29  NH2       16.7680   36.8260   77.4890 N.pl3 200  ARG200      0.1354
     30  N         13.9090   42.3650   78.9020 N.3   316  ASN316     -0.1240
     31  CA        12.5410   41.9330   78.6200 C.3   316  ASN316      0.1653
     32  C         11.7450   42.1380   79.9140 C.2   316  ASN316      0.2266
     33  O         11.8620   41.3450   80.8390 O.2   316  ASN316     -0.2867
     34  CB        12.4810   40.4440   78.2350 C.3   316  ASN316      0.1155
     35  CG        13.2000   40.1350   76.9270 C.2   316  ASN316      0.2627
     36  OD1       14.4250   40.1110   76.8700 O.2   316  ASN316     -0.2716
     37  ND2       12.4290   39.8580   75.8760 N.am  316  ASN316     -0.0877
     38  N         13.2440   41.2170   83.2630 N.3   319  ASP319     -0.1239
     39  CA        14.2550   40.2090   82.9660 C.3   319  ASP319      0.1674
     40  C         15.4530   40.9170   82.3330 C.2   319  ASP319      0.2266
     41  O         15.3370   41.5390   81.2730 O.2   319  ASP319     -0.2867
     42  CB        13.6840   39.1350   82.0320 C.3   319  ASP319      0.1410
     43  CG        12.5380   38.3580   82.6700 C.2   319  ASP319      0.3668
     44  OD1       11.3560   38.6890   82.4130 O.co2 319  ASP319     -0.2456
     45  OD2       12.8170   37.4210   83.4480 O.co2 319  ASP319     -0.2456
     46  N         15.4150   35.3280   81.6290 N.3   366  CYS366     -0.1221
     47  CA        14.0360   35.1530   81.2020 C.3   366  CYS366      0.1808
     48  C         13.7270   33.6560   81.1910 C.2   366  CYS366      0.2602
     49  O         13.1320   33.1260   80.2510 O.2   366  CYS366     -0.2717
     50  CB        13.7890   35.7940   79.8370 C.3   366  CYS366      0.0970
     51  SG        12.1840   36.6150   79.7610 S.3   366  CYS366     -0.0800
     52  N         14.2120   32.9880   82.2390 N.am  367  SER367     -0.1938
     53  CA        14.0340   31.5560   82.4620 C.3   367  SER367      0.2055
     54  C         14.6260   30.6530   81.3770 C.2   367  SER367      0.2643
     55  O         14.3530   29.4580   81.3590 O.2   367  SER367     -0.2714
     56  CB        12.5460   31.2380   82.6370 C.3   367  SER367      0.2130
     57  OG        11.9870   31.9850   83.7020 O.3   367  SER367     -0.2179
     58  N         15.4890   31.2050   80.5310 N.am  368  SER368     -0.1949
     59  CA        16.0720   30.4420   79.4370 C.3   368  SER368      0.1924
     60  C         17.5920   30.5060   79.3460 C.2   368  SER368      0.2314
     61  O         18.2420   31.3160   80.0030 O.2   368  SER368     -0.2863
     62  CB        15.4980   30.9380   78.1130 C.3   368  SER368      0.2116
     63  OG        14.1050   30.7570   78.0810 O.3   368  SER368     -0.2180
     64  N         17.6440   28.0790   71.8910 N.3   384  LEU384     -0.1245
     65  CA        17.1730   28.4230   73.2230 C.3   384  LEU384      0.1561
     66  C         16.4480   27.2590   73.8830 C.2   384  LEU384      0.2260
     67  O         15.6670   26.5480   73.2430 O.2   384  LEU384     -0.2867
     68  CB        16.2400   29.6360   73.1570 C.3   384  LEU384      0.0270
     69  CG        16.1430   30.4780   74.4280 C.3   384  LEU384      0.0019
     70  CD1       17.4710   31.2030   74.6350 C.3   384  LEU384      0.0001
     71  CD2       14.9950   31.4840   74.3360 C.3   384  LEU384      0.0001
     72  N         15.3410   25.6630   78.2230 N.3   386  ARG386     -0.1245
     73  CA        15.0810   26.0010   79.6200 C.3   386  ARG386      0.1563
     74  C         14.7760   24.7070   80.3450 C.2   386  ARG386      0.2260
     75  O         14.5790   23.6670   79.7150 O.2   386  ARG386     -0.2867
     76  CB        13.8540   26.9230   79.7540 C.3   386  ARG386      0.0307
     77  CG        12.5160   26.2760   79.3390 C.3   386  ARG386      0.0489
     78  CD        11.3120   27.0610   79.8760 C.3   386  ARG386      0.2205
     79  NE        11.1150   26.8540   81.3110 N.pl3 386  ARG386     -0.0865
     80  CZ        10.5820   27.7550   82.1340 C.cat 386  ARG386      0.5346
     81  NH1       10.1890   28.9330   81.6670 N.pl3 386  ARG386      0.1354
     82  NH2       10.4400   27.4830   83.4230 N.pl3 386  ARG386      0.1354
     83  N         -0.7010   26.8490   77.2940 N.3   407  SER407     -0.1217
     84  CA         0.7290   27.1050   77.4050 C.3   407  SER407      0.1889
     85  C          1.5630   26.0520   76.6730 C.2   407  SER407      0.2288
     86  O          2.6530   26.3500   76.1990 O.2   407  SER407     -0.2866
     87  CB         1.1630   27.1680   78.8740 C.3   407  SER407      0.2089
     88  OG         1.2840   25.8730   79.4420 O.3   407  SER407     -0.2183
     89  N          2.3200   27.2330   73.0540 N.3   410  GLY410     -0.1210
     90  CA         3.3570   28.2510   73.0830 C.3   410  GLY410      0.1956
     91  C          4.7370   27.6680   73.3500 C.2   410  GLY410      0.2611
     92  O          5.7240   28.0890   72.7470 O.2   410  GLY410     -0.2717
     93  N          4.8130   26.6950   74.2530 N.am  411  ASN411     -0.1974
     94  CA         6.0880   26.0630   74.5580 C.3   411  ASN411      0.1688
     95  C          6.6700   25.2940   73.3710 C.2   411  ASN411      0.2292
     96  O          7.8750   25.3500   73.1250 O.2   411  ASN411     -0.2864
     97  CB         5.9620   25.1680   75.7830 C.3   411  ASN411      0.1181
     98  CG         6.0520   25.9610   77.0760 C.2   411  ASN411      0.2629
     99  OD1        6.8170   26.9280   77.1640 O.2   411  ASN411     -0.2716
    100  ND2        5.2800   25.5600   78.0800 N.am  411  ASN411     -0.0877
    101  N          7.8920   28.0960   70.9080 N.3   414  MET414     -0.1230
    102  CA         9.1030   28.7730   71.3630 C.3   414  MET414      0.1702
    103  C         10.3200   27.8730   71.5940 C.2   414  MET414      0.2592
    104  O         11.4480   28.2860   71.3560 O.2   414  MET414     -0.2718
    105  CB         8.7990   29.5840   72.6230 C.3   414  MET414      0.0401
    106  CG         7.6860   30.6150   72.4400 C.3   414  MET414      0.0596
    107  SD         8.0650   31.8560   71.1780 S.3   414  MET414     -0.1393
    108  CE         8.9520   33.0810   72.1910 C.3   414  MET414      0.0692
    109  N         10.0880   26.6500   72.0540 N.am  415  TYR415     -0.1976
    110  CA        11.1740   25.7160   72.3170 C.3   415  TYR415      0.1639
    111  C         11.1430   24.4960   71.4080 C.2   415  TYR415      0.2290
    112  O         11.5480   23.4170   71.8150 O.2   415  TYR415     -0.2864
    113  CB        11.1370   25.2690   73.7790 C.3   415  TYR415      0.0560
    114  CG        11.3650   26.4070   74.7440 C.ar  415  TYR415     -0.0198
    115  CD1       10.3160   26.9060   75.5150 C.ar  415  TYR415     -0.0009
    116  CD2       12.6120   27.0210   74.8480 C.ar  415  TYR415     -0.0009
    117  CE1       10.4980   27.9890   76.3600 C.ar  415  TYR415      0.0417
    118  CE2       12.8080   28.1120   75.6960 C.ar  415  TYR415      0.0417
    119  CZ        11.7400   28.5910   76.4480 C.ar  415  TYR415      0.1957
    120  OH        11.9020   29.6680   77.2860 O.3   415  TYR415     -0.2866
    121  N         -0.5600   32.4860   74.4390 N.3   446  GLN446     -0.1231
    122  CA         0.1340   33.7540   74.6240 C.3   446  GLN446      0.1698
    123  C          1.5670   33.7310   74.0970 C.2   446  GLN446      0.2592
    124  O          2.3060   32.7680   74.3100 O.2   446  GLN446     -0.2718
    125  CB         0.1950   34.1130   76.1150 C.3   446  GLN446      0.0381
    126  CG        -1.1280   34.0740   76.8670 C.3   446  GLN446      0.0905
    127  CD        -2.0200   35.2550   76.5500 C.2   446  GLN446      0.2608
    128  OE1       -2.8670   35.1870   75.6590 O.2   446  GLN446     -0.2717
    129  NE2       -1.8450   36.3440   77.2920 N.am  446  GLN446     -0.0878
    130  N          1.9500   34.8140   73.4280 N.am  447  ILE447     -0.1966
    131  CA         3.2990   34.9850   72.9100 C.3   447  ILE447      0.1727
    132  C          3.6580   36.4370   73.2060 C.2   447  ILE447      0.2616
    133  O          3.0380   37.3570   72.6760 O.2   447  ILE447     -0.2715
    134  CB         3.3820   34.7370   71.3990 C.3   447  ILE447      0.0290
    135  CG1        3.0650   33.2760   71.0910 C.3   447  ILE447      0.0022
    136  CG2        4.7780   35.0810   70.8890 C.3   447  ILE447      0.0023
    137  CD1        3.1060   32.9530   69.6390 C.3   447  ILE447      0.0001
    138  N          4.6290   36.6330   74.0920 N.am  448  TYR448     -0.1960
    139  CA         5.0510   37.9670   74.4910 C.3   448  TYR448      0.1771
    140  C          3.8700   38.7340   75.0620 C.2   448  TYR448      0.2620
    141  O          3.7000   39.9200   74.7990 O.2   448  TYR448     -0.2715
    142  CB         5.6660   38.7270   73.3100 C.3   448  TYR448      0.0574
    143  CG         7.0790   38.3100   72.9920 C.ar  448  TYR448     -0.0198
    144  CD1        7.7850   38.9030   71.9460 C.ar  448  TYR448     -0.0009
    145  CD2        7.7190   37.3230   73.7400 C.ar  448  TYR448     -0.0009
    146  CE1        9.0920   38.5220   71.6570 C.ar  448  TYR448      0.0417
    147  CE2        9.0210   36.9360   73.4580 C.ar  448  TYR448      0.0417
    148  CZ         9.7010   37.5370   72.4170 C.ar  448  TYR448      0.1957
    149  OH        10.9840   37.1310   72.1260 O.3   448  TYR448     -0.2866
    150  N          3.0340   38.0300   75.8160 N.am  449  GLY449     -0.1954
    151  CA         1.8820   38.6620   76.4320 C.3   449  GLY449      0.1869
    152  C          0.6390   38.7720   75.5640 C.2   449  GLY449      0.2309
    153  O         -0.4650   38.8680   76.0900 O.2   449  GLY449     -0.2863
    154  N          2.6890   41.7410   78.1700 N.3   551  SER551     -0.1217
    155  CA         2.2970   41.0470   79.3960 C.3   551  SER551      0.1889
    156  C          1.3890   41.8790   80.2980 C.2   551  SER551      0.2288
    157  O          1.7290   43.0030   80.6600 O.2   551  SER551     -0.2866
    158  CB         3.5290   40.5980   80.1890 C.3   551  SER551      0.2089
    159  OG         4.2830   39.6470   79.4580 O.3   551  SER551     -0.2183
@<TRIPOS>BOND
     1    18    12    1
     2    18    17    1
     3    12    13    1
     4    14    15    2
     5    14    13    1
     6    19    20    1
     7   137   135    1
     8    13    16    1
     9    16    17    1
    10     4     3    2
    11    20    21    1
    12    20    23    1
    13    21    22    2
    14   136   134    1
    15   101   102    1
    16     3     2    1
    17   135   134    1
    18   107   108    1
    19   107   106    1
    20   104   103    2
    21   102   103    1
    22   102   105    1
    23   134   131    1
    24   111   112    2
    25   111   110    1
    26   103   109   am
    27   146   144   ar
    28   146   148   ar
    29    23    24    1
    30    64    65    1
    31   144   143   ar
    32   109   110    1
    33   149   148    1
    34   110   113    1
    35   148   147   ar
    36   106   105    1
    37     2     5    1
    38     2     1    1
    39   133   132    2
    40    92    91    2
    41   131   132    1
    42   131   130    1
    43   143   142    1
    44   143   145   ar
    45    89    90    1
    46    90    91    1
    47     5     6    1
    48    96    95    2
    49    24    25    1
    50    68    65    1
    51    68    69    1
    52   132   138   am
    53    65    66    1
    54    67    66    2
    55   142   139    1
    56    91    93   am
    57    95    94    1
    58   130   123   am
    59   147   145   ar
    60   113   114    1
    61   138   139    1
    62   123   124    2
    63   123   122    1
    64    25    26    1
    65    93    94    1
    66    71    69    1
    67    69    70    1
    68   121   122    1
    69   139   140    1
    70     6     8   ar
    71     6     7   ar
    72    94    97    1
    73   122   125    1
    74   114   116   ar
    75   114   115   ar
    76   141   140    2
    77   116   118   ar
    78     8    10   ar
    79   140   150   am
    80   115   117   ar
    81     7     9   ar
    82    26    27    2
    83   152   153    2
    84   152   151    1
    85   128   127    2
    86   118   119   ar
    87    28    27    1
    88    97    98    1
    89   150   151    1
    90    37    35   am
    91   125   126    1
    92    10    11   ar
    93    86    85    2
    94    27    29    1
    95   117   119   ar
    96   119   120    1
    97   127   126    1
    98   127   129   am
    99    85    84    1
   100     9    11   ar
   101    36    35    2
   102    35    34    1
   103    98    99    2
   104    98   100   am
   105    83    84    1
   106    84    87    1
   107    63    62    1
   108    62    59    1
   109   154   155    1
   110    72    73    1
   111    34    31    1
   112    31    30    1
   113    31    32    1
   114    87    88    1
   115    77    76    1
   116    77    78    1
   117    60    59    1
   118    60    61    2
   119   155   158    1
   120   155   156    1
   121    59    58    1
   122   159   158    1
   123    73    76    1
   124    73    74    1
   125    75    74    2
   126    51    50    1
   127    50    47    1
   128    78    79    1
   129    32    33    2
   130    49    48    2
   131   156   157    2
   132    58    54   am
   133    48    47    1
   134    48    52   am
   135    47    46    1
   136    41    40    2
   137    79    80    2
   138    55    54    2
   139    54    53    1
   140    81    80    1
   141    42    43    1
   142    42    39    1
   143    80    82    1
   144    52    53    1
   145    40    39    1
   146    44    43   ar
   147    53    56    1
   148    56    57    1
   149    43    45   ar
   150    39    38    1
