@<TRIPOS>MOLECULE
tmp/2ax0B00.pdb
 148 140 0 0 0
SMALL
GASTEIGER

@<TRIPOS>ATOM
      1  N         23.3650   37.3510  131.5820 N.3   193  PHE193     -0.1241
      2  CA        23.0800   36.0600  132.2080 C.3   193  PHE193      0.1605
      3  C         23.4640   35.9250  133.6840 C.2   193  PHE193      0.2264
      4  O         23.1790   34.9020  134.3090 O.2   193  PHE193     -0.2867
      5  CB        23.7010   34.9260  131.3880 C.3   193  PHE193      0.0534
      6  CG        23.2270   34.8790  129.9590 C.ar  193  PHE193     -0.0203
      7  CD1       24.0720   35.2410  128.9150 C.ar  193  PHE193     -0.0042
      8  CD2       21.9430   34.4510  129.6600 C.ar  193  PHE193     -0.0042
      9  CE1       23.6430   35.1700  127.5990 C.ar  193  PHE193     -0.0003
     10  CE2       21.5030   34.3790  128.3440 C.ar  193  PHE193     -0.0003
     11  CZ        22.3580   34.7380  127.3120 C.ar  193  PHE193     -0.0000
     12  N         15.6920   37.1270  137.3020 N.3   197  PRO197     -0.2116
     13  CA        14.6850   38.0630  136.7870 C.3   197  PRO197      0.1372
     14  C         14.5610   39.3480  137.6110 C.2   197  PRO197      0.2244
     15  O         14.5340   40.4540  137.0590 O.2   197  PRO197     -0.2868
     16  CB        13.4030   37.2460  136.8490 C.3   197  PRO197      0.0268
     17  CG        13.8810   35.8550  136.5940 C.3   197  PRO197      0.0207
     18  CD        15.1400   35.7660  137.4100 C.3   197  PRO197      0.0892
     19  N         17.5300   41.5230  137.0170 N.3   200  ARG200     -0.1245
     20  CA        17.5520   42.1530  135.6980 C.3   200  ARG200      0.1563
     21  C         16.6770   43.4010  135.6890 C.2   200  ARG200      0.2260
     22  O         17.0740   44.4410  135.1730 O.2   200  ARG200     -0.2867
     23  CB        17.0810   41.1840  134.6060 C.3   200  ARG200      0.0307
     24  CG        17.1390   41.7990  133.2060 C.3   200  ARG200      0.0489
     25  CD        16.6480   40.8510  132.1210 C.3   200  ARG200      0.2205
     26  NE        16.6000   41.5210  130.8190 N.pl3 200  ARG200     -0.0865
     27  CZ        17.5860   41.5150  129.9230 C.cat 200  ARG200      0.5346
     28  NH1       18.7160   40.8670  130.1670 N.pl3 200  ARG200      0.1354
     29  NH2       17.4460   42.1820  128.7860 N.pl3 200  ARG200      0.1354
     30  N         22.7230   39.8220  126.0410 N.3   316  ASN316     -0.1240
     31  CA        22.3770   38.4120  126.2370 C.3   316  ASN316      0.1653
     32  C         22.4470   37.7580  124.8550 C.2   316  ASN316      0.2266
     33  O         21.5070   37.8700  124.0700 O.2   316  ASN316     -0.2867
     34  CB        20.9440   38.2560  126.7830 C.3   316  ASN316      0.1155
     35  CG        20.7940   38.7510  128.2200 C.2   316  ASN316      0.2627
     36  OD1       20.8310   39.9520  128.4810 O.2   316  ASN316     -0.2716
     37  ND2       20.6210   37.8220  129.1530 N.am  316  ASN316     -0.0877
     38  N         21.1330   39.5720  121.7750 N.3   319  ASP319     -0.1239
     39  CA        20.1370   40.5280  122.2420 C.3   319  ASP319      0.1674
     40  C         20.8290   41.6650  122.9800 C.2   319  ASP319      0.2266
     41  O         21.5370   41.4610  123.9730 O.2   319  ASP319     -0.2867
     42  CB        19.0840   39.8610  123.1140 C.3   319  ASP319      0.1410
     43  CG        17.8290   40.6980  123.2070 C.2   319  ASP319      0.3668
     44  OD1       17.8060   41.6220  124.0460 O.co2 319  ASP319     -0.2456
     45  OD2       16.8920   40.4670  122.4040 O.co2 319  ASP319     -0.2456
     46  N         15.2320   41.3060  124.9620 N.3   366  CYS366     -0.1221
     47  CA        15.1660   39.9110  125.3460 C.3   366  CYS366      0.1808
     48  C         13.6900   39.5220  125.4000 C.2   366  CYS366      0.2602
     49  O         13.2310   38.8600  126.3340 O.2   366  CYS366     -0.2717
     50  CB        15.8580   39.6990  126.6940 C.3   366  CYS366      0.0970
     51  SG        17.0310   38.3060  126.6950 S.3   366  CYS366     -0.0800
     52  N         12.9580   40.0030  124.3940 N.am  367  SER367     -0.1938
     53  CA        11.5330   39.7440  124.2240 C.3   367  SER367      0.2055
     54  C         10.6780   40.1310  125.4320 C.2   367  SER367      0.2643
     55  O          9.5760   39.6070  125.6010 O.2   367  SER367     -0.2714
     56  CB        11.3200   38.2680  123.8850 C.3   367  SER367      0.2130
     57  OG        12.1650   37.8700  122.8170 O.3   367  SER367     -0.2179
     58  N         11.1640   41.0750  126.2380 N.am  368  SER368     -0.1949
     59  CA        10.4430   41.5110  127.4320 C.3   368  SER368      0.1924
     60  C         10.4820   43.0240  127.6250 C.2   368  SER368      0.2314
     61  O         11.3590   43.7120  127.0940 O.2   368  SER368     -0.2863
     62  CB        11.0560   40.8750  128.6830 C.3   368  SER368      0.2116
     63  OG        11.2420   39.4870  128.5320 O.3   368  SER368     -0.2180
     64  N          9.2920   42.1780  134.9250 N.3   384  LEU384     -0.1245
     65  CA         9.3900   41.9650  133.4850 C.3   384  LEU384      0.1561
     66  C          8.2110   41.1480  132.9920 C.2   384  LEU384      0.2260
     67  O          7.7540   40.2290  133.6680 O.2   384  LEU384     -0.2867
     68  CB        10.7000   41.2590  133.1370 C.3   384  LEU384      0.0270
     69  CG        11.9350   42.1520  133.2860 C.3   384  LEU384      0.0019
     70  CD1       13.2080   41.3120  133.2740 C.3   384  LEU384      0.0001
     71  CD2       11.9550   43.1860  132.1680 C.3   384  LEU384      0.0001
     72  N          8.0080   24.3390  128.1560 N.3   407  SER407     -0.1217
     73  CA         8.2120   25.7870  128.1080 C.3   407  SER407      0.1889
     74  C          7.2860   26.4860  129.0970 C.2   407  SER407      0.2288
     75  O          7.6110   27.5550  129.6020 O.2   407  SER407     -0.2866
     76  CB         7.9870   26.3400  126.6970 C.3   407  SER407      0.2089
     77  OG         6.6110   26.3640  126.3490 O.3   407  SER407     -0.2183
     78  N          9.1250   26.9060  132.4740 N.3   410  GLY410     -0.1210
     79  CA        10.0160   28.0400  132.3090 C.3   410  GLY410      0.1956
     80  C          9.3200   29.3900  132.3410 C.2   410  GLY410      0.2611
     81  O          9.8210   30.3330  132.9450 O.2   410  GLY410     -0.2717
     82  N          8.1760   29.4950  131.6750 N.am  411  ASN411     -0.1974
     83  CA         7.4310   30.7540  131.6600 C.3   411  ASN411      0.1688
     84  C          6.8510   31.1180  133.0220 C.2   411  ASN411      0.2292
     85  O          6.8910   32.2800  133.4320 O.2   411  ASN411     -0.2864
     86  CB         6.3480   30.7230  130.5850 C.3   411  ASN411      0.1181
     87  CG         6.9100   31.0150  129.2140 C.2   411  ASN411      0.2629
     88  OD1        7.7790   31.8670  129.0760 O.2   411  ASN411     -0.2716
     89  ND2        6.4320   30.3020  128.1980 N.am  411  ASN411     -0.0877
     90  N         10.0510   32.3260  135.1540 N.3   414  MET414     -0.1230
     91  CA        10.6200   33.6180  134.7770 C.3   414  MET414      0.1702
     92  C          9.6120   34.7730  134.7780 C.2   414  MET414      0.2592
     93  O          9.9760   35.9170  135.0430 O.2   414  MET414     -0.2718
     94  CB        11.3080   33.5160  133.4170 C.3   414  MET414      0.0401
     95  CG        12.4260   32.4740  133.3720 C.3   414  MET414      0.0596
     96  SD        13.7370   32.7820  134.6010 S.3   414  MET414     -0.1393
     97  CE        14.8020   33.8960  133.6830 C.3   414  MET414      0.0692
     98  N          8.3510   34.4790  134.4790 N.am  415  TYR415     -0.1976
     99  CA         7.3230   35.5160  134.4620 C.3   415  TYR415      0.1639
    100  C          6.2940   35.3610  135.5910 C.2   415  TYR415      0.2290
    101  O          5.1530   35.8070  135.4700 O.2   415  TYR415     -0.2864
    102  CB         6.6170   35.5430  133.1070 C.3   415  TYR415      0.0560
    103  CG         7.5070   35.9920  131.9660 C.ar  415  TYR415     -0.0198
    104  CD1        7.9100   35.0940  130.9740 C.ar  415  TYR415     -0.0009
    105  CD2        7.9350   37.3160  131.8700 C.ar  415  TYR415     -0.0009
    106  CE1        8.7180   35.5060  129.9100 C.ar  415  TYR415      0.0417
    107  CE2        8.7480   37.7450  130.8060 C.ar  415  TYR415      0.0417
    108  CZ         9.1310   36.8330  129.8350 C.ar  415  TYR415      0.1957
    109  OH         9.9100   37.2450  128.7830 O.3   415  TYR415     -0.2866
    110  N         14.3220   24.4570  130.7360 N.3   446  GLN446     -0.1231
    111  CA        15.4530   25.2410  130.2460 C.3   446  GLN446      0.1698
    112  C         15.4820   26.6390  130.8470 C.2   446  GLN446      0.2592
    113  O         14.4900   27.3570  130.8130 O.2   446  GLN446     -0.2718
    114  CB        15.4020   25.3650  128.7220 C.3   446  GLN446      0.0381
    115  CG        15.5150   24.0550  127.9740 C.3   446  GLN446      0.0905
    116  CD        16.8500   23.3850  128.1900 C.2   446  GLN446      0.2608
    117  OE1       17.9010   23.9270  127.8290 O.2   446  GLN446     -0.2717
    118  NE2       16.8220   22.1930  128.7730 N.am  446  GLN446     -0.0878
    119  N         16.6260   27.0180  131.4010 N.am  447  ILE447     -0.1966
    120  CA        16.7970   28.3500  131.9750 C.3   447  ILE447      0.1727
    121  C         18.1580   28.8520  131.5160 C.2   447  ILE447      0.2616
    122  O         19.1770   28.2260  131.7980 O.2   447  ILE447     -0.2715
    123  CB        16.7670   28.3280  133.5080 C.3   447  ILE447      0.0290
    124  CG1       15.4440   27.7380  133.9980 C.3   447  ILE447      0.0022
    125  CG2       16.9520   29.7420  134.0560 C.3   447  ILE447      0.0023
    126  CD1       15.3540   27.6120  135.4880 C.3   447  ILE447      0.0001
    127  N         18.1640   29.9720  130.7990 N.am  448  TYR448     -0.1960
    128  CA        19.4000   30.5570  130.2730 C.3   448  TYR448      0.1771
    129  C         20.1950   29.5060  129.4960 C.2   448  TYR448      0.2620
    130  O         21.4220   29.4870  129.5260 O.2   448  TYR448     -0.2715
    131  CB        20.2500   31.1410  131.4040 C.3   448  TYR448      0.0574
    132  CG        19.7650   32.4820  131.9150 C.ar  448  TYR448     -0.0198
    133  CD1       20.4800   33.1790  132.8890 C.ar  448  TYR448     -0.0009
    134  CD2       18.5890   33.0530  131.4270 C.ar  448  TYR448     -0.0009
    135  CE1       20.0350   34.4020  133.3640 C.ar  448  TYR448      0.0417
    136  CE2       18.1370   34.2720  131.8950 C.ar  448  TYR448      0.0417
    137  CZ        18.8600   34.9430  132.8670 C.ar  448  TYR448      0.1957
    138  OH        18.3850   36.1370  133.3690 O.3   448  TYR448     -0.2866
    139  N         19.4670   28.6220  128.8190 N.am  449  GLY449     -0.1954
    140  CA        20.0820   27.6630  127.9210 C.3   449  GLY449      0.1869
    141  C         20.4290   26.3290  128.5570 C.2   449  GLY449      0.2309
    142  O         20.6760   25.3580  127.8430 O.2   449  GLY449     -0.2863
    143  N         22.7450   28.5900  125.7740 N.3   551  SER551     -0.1217
    144  CA        21.8870   28.1990  124.6520 C.3   551  SER551      0.1889
    145  C         22.6220   27.4070  123.5850 C.2   551  SER551      0.2288
    146  O         23.6070   27.8760  123.0200 O.2   551  SER551     -0.2866
    147  CB        21.2260   29.4110  123.9990 C.3   551  SER551      0.2089
    148  OG        20.2340   29.9510  124.8420 O.3   551  SER551     -0.2183
@<TRIPOS>BOND
     1    38    39    1
     2    39    40    1
     3    39    42    1
     4    45    43   ar
     5    57    56    1
     6    40    41    2
     7   146   145    2
     8    42    43    1
     9    43    44   ar
    10   145   144    1
    11    56    53    1
    12   147   144    1
    13   147   148    1
    14    33    32    2
    15    53    52    1
    16    53    54    1
    17    52    48   am
    18   144   143    1
    19    32    31    1
    20    46    47    1
    21    47    48    1
    22    47    50    1
    23    48    49    2
    24    54    55    2
    25    54    58   am
    26    30    31    1
    27    31    34    1
    28    58    59    1
    29    77    76    1
    30    50    51    1
    31    76    73    1
    32    34    35    1
    33    61    60    2
    34    11     9   ar
    35    11    10   ar
    36    59    60    1
    37    59    62    1
    38     9     7   ar
    39   117   116    2
    40   142   141    2
    41   140   141    1
    42   140   139    1
    43   115   116    1
    44   115   114    1
    45    73    72    1
    46    73    74    1
    47   116   118   am
    48    89    87   am
    49    35    36    2
    50    35    37   am
    51    10     8   ar
    52    63    62    1
    53   114   111    1
    54   109   108    1
    55    29    27    1
    56   139   129   am
    57     7     6   ar
    58    88    87    2
    59    74    75    2
    60    87    86    1
    61   129   130    2
    62   129   128    1
    63     8     6   ar
    64   108   106   ar
    65   108   107   ar
    66   106   104   ar
    67    27    28    1
    68    27    26    2
    69     6     5    1
    70   111   110    1
    71   111   112    1
    72   128   127    1
    73   128   131    1
    74    86    83    1
    75   127   121   am
    76   107   105   ar
    77   113   112    2
    78    26    25    1
    79   112   119   am
    80   104   103   ar
    81     5     2    1
    82   119   120    1
    83   131   132    1
    84   134   136   ar
    85   134   132   ar
    86   121   122    2
    87   121   120    1
    88     1     2    1
    89    83    82    1
    90    83    84    1
    91    82    80   am
    92   105   103   ar
    93   136   137   ar
    94   132   133   ar
    95   103   102    1
    96   120   123    1
    97    25    24    1
    98    71    69    1
    99     2     3    1
   100    79    80    1
   101    79    78    1
   102    80    81    2
   103   137   135   ar
   104   137   138    1
   105   133   135   ar
   106    66    65    1
   107    66    67    2
   108    84    85    2
   109   102    99    1
   110    68    69    1
   111    68    65    1
   112    24    23    1
   113    70    69    1
   114    95    94    1
   115    95    96    1
   116    94    91    1
   117    65    64    1
   118   123   124    1
   119   123   125    1
   120    97    96    1
   121     3     4    2
   122   124   126    1
   123    99    98    1
   124    99   100    1
   125    98    92   am
   126    23    20    1
   127    91    92    1
   128    91    90    1
   129    92    93    2
   130    22    21    2
   131   101   100    2
   132    21    20    1
   133    20    19    1
   134    17    16    1
   135    17    18    1
   136    13    16    1
   137    13    12    1
   138    13    14    1
   139    15    14    2
   140    12    18    1
