@<TRIPOS>MOLECULE
tmp/2ax1A00.pdb
 169 162 0 0 0
SMALL
GASTEIGER

@<TRIPOS>ATOM
      1  N         11.8930   42.0490   73.0710 N.3   193  PHE193     -0.1241
      2  CA        10.6530   41.6450   72.4230 C.3   193  PHE193      0.1605
      3  C         10.6030   41.8120   70.9070 C.2   193  PHE193      0.2264
      4  O          9.5820   41.5190   70.2880 O.2   193  PHE193     -0.2867
      5  CB         9.4530   42.3390   73.0760 C.3   193  PHE193      0.0534
      6  CG         9.2460   41.9640   74.5180 C.ar  193  PHE193     -0.0203
      7  CD1        9.4010   42.9130   75.5300 C.ar  193  PHE193     -0.0042
      8  CD2        8.8960   40.6610   74.8700 C.ar  193  PHE193     -0.0042
      9  CE1        9.2080   42.5680   76.8680 C.ar  193  PHE193     -0.0003
     10  CE2        8.7030   40.3070   76.2060 C.ar  193  PHE193     -0.0003
     11  CZ         8.8570   41.2580   77.2070 C.ar  193  PHE193     -0.0000
     12  N         12.6670   36.8440   67.7840 N.3   196  SER196     -0.1203
     13  CA        12.0270   35.5400   67.8110 C.3   196  SER196      0.2005
     14  C         13.0780   34.7460   68.5950 C.2   196  SER196      0.2460
     15  O         14.1920   35.2280   68.7870 O.2   196  SER196     -0.2732
     16  CB        11.9200   34.9750   66.3920 C.3   196  SER196      0.2103
     17  OG        13.2140   34.8020   65.8310 O.3   196  SER196     -0.2182
     18  N         12.7420   33.5420   69.0800 N.am  197  PRO197     -0.2728
     19  CA        13.7370   32.7630   69.8350 C.3   197  PRO197      0.1401
     20  C         15.1040   32.6650   69.1290 C.2   197  PRO197      0.2269
     21  O         16.1400   32.9840   69.7150 O.2   197  PRO197     -0.2865
     22  CB        13.0740   31.3930   69.9470 C.3   197  PRO197      0.0296
     23  CG        11.6090   31.7260   70.0310 C.3   197  PRO197      0.0237
     24  CD        11.4360   32.8570   69.0340 C.3   197  PRO197      0.0939
     25  N         16.9840   35.8200   69.1050 N.3   200  ARG200     -0.1245
     26  CA        17.4810   36.0950   70.4480 C.3   200  ARG200      0.1563
     27  C         18.7880   35.3310   70.6760 C.2   200  ARG200      0.2260
     28  O         19.7610   35.8870   71.1730 O.2   200  ARG200     -0.2867
     29  CB        16.4500   35.6960   71.5140 C.3   200  ARG200      0.0307
     30  CG        16.9000   36.0090   72.9480 C.3   200  ARG200      0.0489
     31  CD        15.9200   35.4840   73.9950 C.3   200  ARG200      0.2205
     32  NE        16.4310   35.6870   75.3490 N.pl3 200  ARG200     -0.0865
     33  CZ        16.1850   36.7640   76.0890 C.cat 200  ARG200      0.5346
     34  NH1       15.4280   37.7410   75.6100 N.pl3 200  ARG200      0.1354
     35  NH2       16.7190   36.8800   77.2970 N.pl3 200  ARG200      0.1354
     36  N         13.8510   42.3160   78.8120 N.3   316  ASN316     -0.1240
     37  CA        12.4870   41.8800   78.5230 C.3   316  ASN316      0.1653
     38  C         11.6800   42.1330   79.7980 C.2   316  ASN316      0.2266
     39  O         11.7140   41.3310   80.7240 O.2   316  ASN316     -0.2867
     40  CB        12.4330   40.3740   78.2040 C.3   316  ASN316      0.1155
     41  CG        13.1380   40.0110   76.9060 C.2   316  ASN316      0.2627
     42  OD1       14.3620   40.0230   76.8280 O.2   316  ASN316     -0.2716
     43  ND2       12.3610   39.6480   75.8910 N.am  316  ASN316     -0.0877
     44  N         15.4110   35.2580   81.2880 N.3   366  CYS366     -0.1221
     45  CA        14.0340   35.0670   80.8600 C.3   366  CYS366      0.1808
     46  C         13.7030   33.5860   80.8860 C.2   366  CYS366      0.2602
     47  O         13.1250   33.0360   79.9410 O.2   366  CYS366     -0.2717
     48  CB        13.7790   35.6700   79.4790 C.3   366  CYS366      0.0970
     49  SG        12.1830   36.5270   79.4180 S.3   366  CYS366     -0.0800
     50  N         14.1190   32.9590   81.9830 N.am  367  SER367     -0.1938
     51  CA        13.9000   31.5470   82.2530 C.3   367  SER367      0.2055
     52  C         14.5370   30.6110   81.2320 C.2   367  SER367      0.2643
     53  O         14.2940   29.4080   81.2760 O.2   367  SER367     -0.2714
     54  CB        12.3990   31.2610   82.3380 C.3   367  SER367      0.2130
     55  OG        11.7570   32.1930   83.1920 O.3   367  SER367     -0.2179
     56  N         15.3940   31.1460   80.3690 N.am  368  SER368     -0.1949
     57  CA        16.0240   30.3430   79.3290 C.3   368  SER368      0.1924
     58  C         17.5410   30.4700   79.2570 C.2   368  SER368      0.2314
     59  O         18.1360   31.3720   79.8420 O.2   368  SER368     -0.2863
     60  CB        15.4440   30.7230   77.9670 C.3   368  SER368      0.2116
     61  OG        14.0360   30.6860   77.9900 O.3   368  SER368     -0.2180
     62  N         17.6190   28.1060   72.0600 N.3   384  LEU384     -0.1245
     63  CA        17.1700   28.3990   73.4210 C.3   384  LEU384      0.1561
     64  C         16.3980   27.2460   74.0300 C.2   384  LEU384      0.2260
     65  O         15.5300   26.6500   73.3900 O.2   384  LEU384     -0.2867
     66  CB        16.2720   29.6360   73.4690 C.3   384  LEU384      0.0270
     67  CG        16.9000   31.0220   73.6010 C.3   384  LEU384      0.0019
     68  CD1       15.7800   32.0450   73.7320 C.3   384  LEU384      0.0001
     69  CD2       17.8180   31.0930   74.8060 C.3   384  LEU384      0.0001
     70  N         15.2580   25.5800   78.2890 N.3   386  ARG386     -0.1245
     71  CA        15.0110   25.9300   79.6810 C.3   386  ARG386      0.1563
     72  C         14.7160   24.6350   80.3980 C.2   386  ARG386      0.2260
     73  O         14.5050   23.6020   79.7590 O.2   386  ARG386     -0.2867
     74  CB        13.7820   26.8430   79.8220 C.3   386  ARG386      0.0307
     75  CG        12.4510   26.1860   79.4050 C.3   386  ARG386      0.0489
     76  CD        11.2290   26.9220   79.9750 C.3   386  ARG386      0.2205
     77  NE        11.0750   26.7250   81.4160 N.pl3 386  ARG386     -0.0865
     78  CZ        10.5230   27.6140   82.2430 C.cat 386  ARG386      0.5346
     79  NH1       10.0650   28.7690   81.7750 N.pl3 386  ARG386      0.1354
     80  NH2       10.4430   27.3610   83.5420 N.pl3 386  ARG386      0.1354
     81  N         -0.6120   26.7140   77.2680 N.3   407  SER407     -0.1217
     82  CA         0.8270   26.9470   77.3630 C.3   407  SER407      0.1889
     83  C          1.6210   25.8690   76.6440 C.2   407  SER407      0.2288
     84  O          2.7100   26.1330   76.1520 O.2   407  SER407     -0.2866
     85  CB         1.2850   27.0250   78.8260 C.3   407  SER407      0.2089
     86  OG         1.3160   25.7460   79.4370 O.3   407  SER407     -0.2183
     87  N          2.2480   27.0850   73.0810 N.3   410  GLY410     -0.1210
     88  CA         3.2710   28.1140   73.1040 C.3   410  GLY410      0.1956
     89  C          4.6550   27.5430   73.3720 C.2   410  GLY410      0.2611
     90  O          5.6400   27.9830   72.7740 O.2   410  GLY410     -0.2717
     91  N          4.7380   26.5720   74.2770 N.am  411  ASN411     -0.1974
     92  CA         6.0160   25.9540   74.5880 C.3   411  ASN411      0.1688
     93  C          6.5990   25.2100   73.3930 C.2   411  ASN411      0.2292
     94  O          7.7970   25.3090   73.1190 O.2   411  ASN411     -0.2864
     95  CB         5.8890   25.0500   75.8100 C.3   411  ASN411      0.1181
     96  CG         6.0150   25.8260   77.1030 C.2   411  ASN411      0.2629
     97  OD1        6.7950   26.7770   77.1800 O.2   411  ASN411     -0.2716
     98  ND2        5.2540   25.4320   78.1210 N.am  411  ASN411     -0.0877
     99  N          7.8330   28.1080   70.9300 N.3   414  MET414     -0.1230
    100  CA         9.0380   28.8120   71.3700 C.3   414  MET414      0.1702
    101  C         10.2500   27.9150   71.6150 C.2   414  MET414      0.2592
    102  O         11.3820   28.3290   71.4100 O.2   414  MET414     -0.2718
    103  CB         8.7410   29.6250   72.6350 C.3   414  MET414      0.0401
    104  CG         7.6340   30.6480   72.4720 C.3   414  MET414      0.0596
    105  SD         8.0660   31.8910   71.2420 S.3   414  MET414     -0.1393
    106  CE         9.0630   33.0170   72.2800 C.3   414  MET414      0.0692
    107  N         10.0100   26.6870   72.0530 N.am  415  TYR415     -0.1976
    108  CA        11.1020   25.7660   72.3260 C.3   415  TYR415      0.1639
    109  C         11.0950   24.5490   71.4130 C.2   415  TYR415      0.2290
    110  O         11.5450   23.4750   71.8090 O.2   415  TYR415     -0.2864
    111  CB        11.0510   25.3080   73.7800 C.3   415  TYR415      0.0560
    112  CG        11.2730   26.4300   74.7730 C.ar  415  TYR415     -0.0198
    113  CD1       10.2100   26.9550   75.5080 C.ar  415  TYR415     -0.0009
    114  CD2       12.5470   26.9580   74.9880 C.ar  415  TYR415     -0.0009
    115  CE1       10.4040   27.9810   76.4370 C.ar  415  TYR415      0.0417
    116  CE2       12.7590   27.9900   75.9200 C.ar  415  TYR415      0.0417
    117  CZ        11.6800   28.4910   76.6410 C.ar  415  TYR415      0.1957
    118  OH        11.8740   29.4760   77.5850 O.3   415  TYR415     -0.2866
    119  N         -0.6110   32.4300   74.4170 N.3   446  GLN446     -0.1231
    120  CA         0.0860   33.6980   74.5270 C.3   446  GLN446      0.1698
    121  C          1.5120   33.6460   74.0020 C.2   446  GLN446      0.2592
    122  O          2.2520   32.6960   74.2690 O.2   446  GLN446     -0.2718
    123  CB         0.1530   34.1390   75.9950 C.3   446  GLN446      0.0381
    124  CG        -1.1390   34.0000   76.7910 C.3   446  GLN446      0.0905
    125  CD        -2.1110   35.1330   76.5490 C.2   446  GLN446      0.2608
    126  OE1       -2.8360   35.1440   75.5560 O.2   446  GLN446     -0.2717
    127  NE2       -2.1390   36.0940   77.4700 N.am  446  GLN446     -0.0878
    128  N          1.8840   34.6780   73.2520 N.am  447  ILE447     -0.1966
    129  CA         3.2360   34.8310   72.7350 C.3   447  ILE447      0.1727
    130  C          3.5750   36.2780   73.0930 C.2   447  ILE447      0.2616
    131  O          2.8950   37.2050   72.6520 O.2   447  ILE447     -0.2715
    132  CB         3.3260   34.6710   71.2060 C.3   447  ILE447      0.0290
    133  CG1        2.8180   33.2970   70.7560 C.3   447  ILE447      0.0022
    134  CG2        4.7710   34.8790   70.7550 C.3   447  ILE447      0.0023
    135  CD1        3.6460   32.1350   71.2340 C.3   447  ILE447      0.0001
    136  N          4.6040   36.4630   73.9140 N.am  448  TYR448     -0.1960
    137  CA         5.0160   37.7880   74.3610 C.3   448  TYR448      0.1771
    138  C          3.8220   38.5400   74.9250 C.2   448  TYR448      0.2620
    139  O          3.6380   39.7320   74.6750 O.2   448  TYR448     -0.2715
    140  CB         5.6670   38.5750   73.2260 C.3   448  TYR448      0.0574
    141  CG         7.0910   38.1540   72.9290 C.ar  448  TYR448     -0.0198
    142  CD1        7.8090   38.7480   71.8900 C.ar  448  TYR448     -0.0009
    143  CD2        7.7260   37.1690   73.6900 C.ar  448  TYR448     -0.0009
    144  CE1        9.1240   38.3700   71.6150 C.ar  448  TYR448      0.0417
    145  CE2        9.0420   36.7850   73.4230 C.ar  448  TYR448      0.0417
    146  CZ         9.7350   37.3870   72.3860 C.ar  448  TYR448      0.1957
    147  OH        11.0280   36.9970   72.1110 O.3   448  TYR448     -0.2866
    148  N          2.9880   37.8060   75.6530 N.am  449  GLY449     -0.1954
    149  CA         1.8950   38.4120   76.3830 C.3   449  GLY449      0.1869
    150  C          0.6320   38.6100   75.5660 C.2   449  GLY449      0.2309
    151  O         -0.4290   38.8420   76.1310 O.2   449  GLY449     -0.2863
    152  N          3.4640   42.5150   75.6370 N.3   547  TYR547     -0.1227
    153  CA         2.1540   42.9630   76.0800 C.3   547  TYR547      0.1736
    154  C          1.6440   42.2340   77.3100 C.2   547  TYR547      0.2596
    155  O          0.4540   42.2390   77.5720 O.2   547  TYR547     -0.2718
    156  CB         1.1330   42.7950   74.9570 C.3   547  TYR547      0.0548
    157  CG         1.4960   43.5070   73.6760 C.ar  547  TYR547     -0.0200
    158  CD1        2.1380   42.8320   72.6360 C.ar  547  TYR547     -0.0009
    159  CD2        1.1740   44.8500   73.4930 C.ar  547  TYR547     -0.0009
    160  CE1        2.4430   43.4800   71.4430 C.ar  547  TYR547      0.0417
    161  CE2        1.4720   45.5060   72.3070 C.ar  547  TYR547      0.0417
    162  CZ         2.1010   44.8170   71.2870 C.ar  547  TYR547      0.1957
    163  OH         2.3460   45.4630   70.1030 O.3   547  TYR547     -0.2866
    164  N          2.5380   41.6260   78.0820 N.am  548  SER548     -0.1952
    165  CA         2.1180   40.9120   79.2790 C.3   548  SER548      0.1924
    166  C          1.2610   41.7730   80.2060 C.2   548  SER548      0.2314
    167  O          1.6200   42.9120   80.5220 O.2   548  SER548     -0.2863
    168  CB         3.3350   40.3760   80.0400 C.3   548  SER548      0.2116
    169  OG         3.9710   39.3560   79.2900 O.3   548  SER548     -0.2180
@<TRIPOS>BOND
     1    17    16    1
     2    16    13    1
     3    12    13    1
     4    13    14    1
     5    14    15    2
     6    14    18   am
     7    24    18    1
     8    24    23    1
     9    18    19    1
    10    25    26    1
    11    20    21    2
    12    20    19    1
    13    19    22    1
    14    22    23    1
    15   163   162    1
    16     4     3    2
    17    26    27    1
    18    26    29    1
    19    27    28    2
    20   134   132    1
    21   133   132    1
    22   133   135    1
    23     3     2    1
    24    99   100    1
    25   132   129    1
    26   105   106    1
    27   105   104    1
    28   162   160   ar
    29   162   161   ar
    30   100   101    1
    31   100   103    1
    32   102   101    2
    33   109   110    2
    34   109   108    1
    35   160   158   ar
    36    29    30    1
    37   144   142   ar
    38   144   146   ar
    39   101   107   am
    40   142   141   ar
    41   107   108    1
    42    62    63    1
    43   147   146    1
    44   161   159   ar
    45   108   111    1
    46   146   145   ar
    47     2     1    1
    48     2     5    1
    49   104   103    1
    50   158   157   ar
    51   131   130    2
    52   129   130    1
    53   129   128    1
    54    90    89    2
    55   141   140    1
    56   141   143   ar
    57    30    31    1
    58     5     6    1
    59    87    88    1
    60   130   136   am
    61    88    89    1
    62    94    93    2
    63   140   137    1
    64   128   121   am
    65    89    91   am
    66    65    64    2
    67    93    92    1
    68    63    66    1
    69    63    64    1
    70   145   143   ar
    71    66    67    1
    72   159   157   ar
    73    67    68    1
    74    67    69    1
    75   157   156    1
    76   111   112    1
    77   136   137    1
    78    31    32    1
    79   121   122    2
    80   121   120    1
    81    91    92    1
    82   137   138    1
    83   119   120    1
    84     6     8   ar
    85     6     7   ar
    86   120   123    1
    87    92    95    1
    88   139   138    2
    89   112   114   ar
    90   112   113   ar
    91     8    10   ar
    92   138   148   am
    93   156   153    1
    94   114   116   ar
    95    32    33    2
    96   113   115   ar
    97     7     9   ar
    98   126   125    2
    99   150   151    2
   100   150   149    1
   101    34    33    1
   102   152   153    1
   103   148   149    1
   104    95    96    1
   105    43    41   am
   106   116   117   ar
   107   123   124    1
   108   153   154    1
   109    33    35    1
   110    84    83    2
   111    10    11   ar
   112   115   117   ar
   113   125   124    1
   114   125   127   am
   115   117   118    1
   116    83    82    1
   117    42    41    2
   118     9    11   ar
   119    41    40    1
   120    96    97    2
   121    96    98   am
   122    81    82    1
   123   154   155    2
   124   154   164   am
   125    82    85    1
   126    60    61    1
   127    60    57    1
   128   164   165    1
   129    40    37    1
   130    70    71    1
   131    37    36    1
   132    37    38    1
   133    85    86    1
   134    58    57    1
   135    58    59    2
   136   165   168    1
   137   165   166    1
   138   169   168    1
   139    57    56    1
   140    75    74    1
   141    75    76    1
   142    49    48    1
   143    48    45    1
   144    71    74    1
   145    71    72    1
   146    73    72    2
   147    38    39    2
   148    47    46    2
   149    76    77    1
   150   166   167    2
   151    56    52   am
   152    45    46    1
   153    45    44    1
   154    46    50   am
   155    52    53    2
   156    52    51    1
   157    77    78    2
   158    79    78    1
   159    50    51    1
   160    78    80    1
   161    51    54    1
   162    54    55    1
