@<TRIPOS>MOLECULE
tmp/2axaA00.pdb
 223 210 0 0 0
SMALL
GASTEIGER

@<TRIPOS>ATOM
      1  N         32.2520    0.3090   -3.5260 N.3    30  LEU30      -0.1245
      2  CA        32.3610    0.0420   -2.0920 C.3    30  LEU30       0.1561
      3  C         33.4340    0.9080   -1.4220 C.2    30  LEU30       0.2260
      4  O         33.2680    1.3440   -0.2790 O.2    30  LEU30      -0.2867
      5  CB        32.6250   -1.4500   -1.8460 C.3    30  LEU30       0.0270
      6  CG        31.3840   -2.3150   -1.5820 C.3    30  LEU30       0.0019
      7  CD1       30.7690   -1.9250   -0.2360 C.3    30  LEU30       0.0001
      8  CD2       30.3630   -2.1510   -2.7120 C.3    30  LEU30       0.0001
      9  N         31.7360    4.0040   -0.8180 N.3    33  LEU33      -0.1231
     10  CA        30.7530    3.9060    0.2530 C.3    33  LEU33       0.1693
     11  C         31.4990    3.9390    1.5960 C.2    33  LEU33       0.2592
     12  O         31.0400    4.5680    2.5410 O.2    33  LEU33      -0.2718
     13  CB        29.9160    2.6200    0.1190 C.3    33  LEU33       0.0284
     14  CG        28.7470    2.6790   -0.8800 C.3    33  LEU33       0.0019
     15  CD1       28.0840    1.3060   -1.0170 C.3    33  LEU33       0.0001
     16  CD2       27.7250    3.7130   -0.4080 C.3    33  LEU33       0.0001
     17  N         32.6610    3.2890    1.6680 N.am   34  ASN34      -0.1974
     18  CA        33.4460    3.2770    2.9080 C.3    34  ASN34       0.1688
     19  C         33.9660    4.6710    3.2400 C.2    34  ASN34       0.2292
     20  O         33.8700    5.1220    4.3840 O.2    34  ASN34      -0.2864
     21  CB        34.6340    2.3140    2.8040 C.3    34  ASN34       0.1181
     22  CG        34.2060    0.8640    2.7320 C.2    34  ASN34       0.2629
     23  OD1       33.0550    0.5240    3.0160 O.2    34  ASN34      -0.2716
     24  ND2       35.1400   -0.0060    2.3660 N.am   34  ASN34      -0.0877
     25  N         32.7700    7.5090    2.1430 N.3    36  LEU36      -0.1231
     26  CA        31.6140    8.3440    2.4640 C.3    36  LEU36       0.1693
     27  C         31.1730    8.0700    3.9000 C.2    36  LEU36       0.2592
     28  O         30.8790    8.9980    4.6520 O.2    36  LEU36      -0.2718
     29  CB        30.4470    8.0660    1.5060 C.3    36  LEU36       0.0284
     30  CG        29.1580    8.8460    1.8170 C.3    36  LEU36       0.0019
     31  CD1       29.4230   10.3480    1.7800 C.3    36  LEU36       0.0001
     32  CD2       28.0760    8.4780    0.8160 C.3    36  LEU36       0.0001
     33  N         31.1260    6.7940    4.2690 N.am   37  GLY37      -0.1957
     34  CA        30.7240    6.4260    5.6170 C.3    37  GLY37       0.1869
     35  C         31.5850    7.1100    6.6610 C.2    37  GLY37       0.2309
     36  O         31.0820    7.6490    7.6420 O.2    37  GLY37      -0.2863
     37  N         30.9330   10.8410    6.8360 N.3    40  GLN40      -0.1245
     38  CA        29.6880   11.0990    7.5440 C.3    40  GLN40       0.1566
     39  C         29.8460   10.8980    9.0550 C.2    40  GLN40       0.2260
     40  O         29.2450   11.6280    9.8400 O.2    40  GLN40      -0.2867
     41  CB        28.5700   10.2020    7.0070 C.3    40  GLN40       0.0367
     42  CG        28.2360   10.4790    5.5430 C.3    40  GLN40       0.0905
     43  CD        26.8730    9.9620    5.1310 C.2    40  GLN40       0.2608
     44  OE1       26.4770   10.0870    3.9690 O.2    40  GLN40      -0.2717
     45  NE2       26.1410    9.3870    6.0800 N.am   40  GLN40      -0.0878
     46  N         28.9040    4.8530   17.8150 N.3    67  GLN67      -0.1245
     47  CA        29.4130    3.7840   16.9670 C.3    67  GLN67       0.1566
     48  C         28.3560    2.7230   16.6370 C.2    67  GLN67       0.2260
     49  O         28.2820    2.2600   15.4960 O.2    67  GLN67      -0.2867
     50  CB        30.6550    3.1550   17.6140 C.3    67  GLN67       0.0367
     51  CG        31.7730    4.1780   17.8370 C.3    67  GLN67       0.0905
     52  CD        33.0810    3.5610   18.3100 C.2    67  GLN67       0.2608
     53  OE1       33.0920    2.5460   19.0080 O.2    67  GLN67      -0.2717
     54  NE2       34.1910    4.1940   17.9540 N.am   67  GLN67      -0.0878
     55  N         25.5940    4.4120   14.3710 N.3    70  TRP70      -0.1227
     56  CA        26.1520    4.9650   13.1440 C.3    70  TRP70       0.1737
     57  C         25.4450    4.5190   11.8570 C.2    70  TRP70       0.2595
     58  O         24.9520    5.3530   11.0990 O.2    70  TRP70      -0.2718
     59  CB        27.6470    4.6340   13.0980 C.3    70  TRP70       0.0564
     60  CG        28.4000    5.1380   11.9090 C.ar   70  TRP70       0.0003
     61  CD1       28.0320    6.1360   11.0500 C.ar   70  TRP70       0.0946
     62  CD2       29.6780    4.6770   11.4630 C.ar   70  TRP70       0.0152
     63  NE1       29.0040    6.3200   10.0940 N.ar   70  TRP70      -0.2442
     64  CE2       30.0260    5.4370   10.3250 C.ar   70  TRP70       0.0810
     65  CE3       30.5670    3.6890   11.9170 C.ar   70  TRP70       0.0012
     66  CZ2       31.2280    5.2420    9.6330 C.ar   70  TRP70       0.0191
     67  CZ3       31.7620    3.4960   11.2270 C.ar   70  TRP70       0.0001
     68  CH2       32.0790    4.2720   10.0970 C.ar   70  TRP70       0.0015
     69  N         25.3880    3.2140   11.6100 N.am   71  MET71      -0.1979
     70  CA        24.7420    2.7030   10.4030 C.3    71  MET71       0.1605
     71  C         23.2710    3.1270   10.3100 C.2    71  MET71       0.2287
     72  O         22.8400    3.6590    9.2900 O.2    71  MET71      -0.2864
     73  CB        24.8430    1.1710   10.3500 C.3    71  MET71       0.0413
     74  CG        24.2750    0.5550    9.0690 C.3    71  MET71       0.0598
     75  SD        25.2820    0.9320    7.6150 S.3    71  MET71      -0.1393
     76  CE        26.5100   -0.4070    7.6890 C.3    71  MET71       0.0692
     77  N         22.7210    6.7960    9.4510 N.3    74  MET74      -0.1230
     78  CA        23.0010    7.0940    8.0510 C.3    74  MET74       0.1702
     79  C         21.8830    6.5900    7.1400 C.2    74  MET74       0.2592
     80  O         21.5010    7.2720    6.1870 O.2    74  MET74      -0.2718
     81  CB        24.3340    6.4770    7.6120 C.3    74  MET74       0.0401
     82  CG        25.5820    7.1020    8.2280 C.3    74  MET74       0.0596
     83  SD        27.0760    6.7060    7.2650 S.3    74  MET74      -0.1393
     84  CE        27.2540    4.9750    7.5820 C.3    74  MET74       0.0692
     85  N         21.3710    5.3940    7.4280 N.am   75  VAL75      -0.1980
     86  CA        20.2950    4.8040    6.6390 C.3    75  VAL75       0.1595
     87  C         19.0690    5.7090    6.6510 C.2    75  VAL75       0.2287
     88  O         18.4790    5.9920    5.6120 O.2    75  VAL75      -0.2864
     89  CB        19.8740    3.4070    7.1920 C.3    75  VAL75       0.0276
     90  CG1       18.5300    2.9890    6.6010 C.3    75  VAL75       0.0022
     91  CG2       20.9280    2.3610    6.8450 C.3    75  VAL75       0.0022
     92  N         19.7240    8.9040    4.7650 N.3    78  MET78      -0.1245
     93  CA        19.8650    8.6640    3.3300 C.3    78  MET78       0.1570
     94  C         18.4760    8.5100    2.7060 C.2    78  MET78       0.2261
     95  O         18.2170    9.0190    1.6140 O.2    78  MET78      -0.2867
     96  CB        20.7210    7.4140    3.0820 C.3    78  MET78       0.0387
     97  CG        21.1880    7.2400    1.6340 C.3    78  MET78       0.0595
     98  SD        19.9450    6.4630    0.5870 S.3    78  MET78      -0.1393
     99  CE        20.2790    4.7180    0.9170 C.3    78  MET78       0.0692
    100  N         16.9810   11.9540    2.2270 N.3    81  ARG81      -0.1245
    101  CA        17.5920   12.6580    1.0990 C.3    81  ARG81       0.1563
    102  C         17.0870   12.0900   -0.2220 C.2    81  ARG81       0.2260
    103  O         16.9150   12.8210   -1.1980 O.2    81  ARG81      -0.2867
    104  CB        19.1230   12.5250    1.1240 C.3    81  ARG81       0.0307
    105  CG        19.8330   13.2890    2.2260 C.3    81  ARG81       0.0489
    106  CD        21.3280   13.3990    1.9240 C.3    81  ARG81       0.2205
    107  NE        22.0020   12.0990    1.8490 N.pl3  81  ARG81      -0.0865
    108  CZ        22.3910   11.3960    2.9100 C.cat  81  ARG81       0.5346
    109  NH1       22.1750   11.8620    4.1320 N.pl3  81  ARG81       0.1354
    110  NH2       23.0020   10.2280    2.7510 N.pl3  81  ARG81       0.1354
    111  N         22.9260    8.5840   -1.7340 N.3    93  PHE93      -0.1241
    112  CA        23.9120    8.4450   -0.6600 C.3    93  PHE93       0.1605
    113  C         24.6450    9.7730   -0.4970 C.2    93  PHE93       0.2264
    114  O         24.9870   10.1770    0.6120 O.2    93  PHE93      -0.2867
    115  CB        24.9310    7.3470   -0.9730 C.3    93  PHE93       0.0534
    116  CG        24.3670    5.9560   -0.9270 C.ar   93  PHE93      -0.0203
    117  CD1       23.7720    5.3960   -2.0510 C.ar   93  PHE93      -0.0042
    118  CD2       24.4600    5.1960    0.2320 C.ar   93  PHE93      -0.0042
    119  CE1       23.2780    4.0920   -2.0260 C.ar   93  PHE93      -0.0003
    120  CE2       23.9690    3.8880    0.2680 C.ar   93  PHE93      -0.0003
    121  CZ        23.3770    3.3350   -0.8640 C.ar   93  PHE93      -0.0000
    122  N         24.6450   -5.2390   -2.7120 N.3   109  MET109     -0.1245
    123  CA        23.8330   -4.8480   -1.5590 C.3   109  MET109      0.1570
    124  C         22.4370   -4.5500   -2.0850 C.2   109  MET109      0.2261
    125  O         21.7410   -3.6780   -1.5610 O.2   109  MET109     -0.2867
    126  CB        24.3710   -3.5630   -0.9270 C.3   109  MET109      0.0387
    127  CG        25.8330   -3.5830   -0.5500 C.3   109  MET109      0.0595
    128  SD        26.4150   -1.9130   -0.1760 S.3   109  MET109     -0.1393
    129  CE        25.7520   -1.6890    1.4090 C.3   109  MET109      0.0692
    130  N         15.8550    0.2090    1.5310 N.3   116  MET116     -0.1245
    131  CA        16.0530    1.6180    1.8310 C.3   116  MET116      0.1570
    132  C         15.2460    2.4640    0.8440 C.2   116  MET116      0.2261
    133  O         14.8180    3.5660    1.1720 O.2   116  MET116     -0.2867
    134  CB        17.5420    1.9870    1.7700 C.3   116  MET116      0.0387
    135  CG        18.3890    1.2480    2.8090 C.3   116  MET116      0.0595
    136  SD        20.0690    1.8790    3.0050 S.3   116  MET116     -0.1393
    137  CE        20.8320    1.2460    1.5130 C.3   116  MET116      0.0692
    138  N         22.9730   -4.4790    6.5750 N.3   194  LEU194     -0.1231
    139  CA        24.1430   -3.7560    6.0950 C.3   194  LEU194      0.1693
    140  C         25.3590   -4.1190    6.9470 C.2   194  LEU194      0.2592
    141  O         26.4640   -4.2770    6.4270 O.2   194  LEU194     -0.2718
    142  CB        23.8940   -2.2430    6.1420 C.3   194  LEU194      0.0284
    143  CG        22.8890   -1.7170    5.1070 C.3   194  LEU194      0.0019
    144  CD1       22.5150   -0.2860    5.4230 C.3   194  LEU194      0.0001
    145  CD2       23.4890   -1.8150    3.7140 C.3   194  LEU194      0.0001
    146  N         25.1480   -4.2510    8.2540 N.am  195  HIS195     -0.1976
    147  CA        26.2260   -4.6080    9.1650 C.3   195  HIS195      0.1656
    148  C         26.7840   -5.9780    8.8110 C.2   195  HIS195      0.2291
    149  O         28.0020   -6.1770    8.7940 O.2   195  HIS195     -0.2864
    150  CB        25.7240   -4.6300   10.6130 C.3   195  HIS195      0.0771
    151  CG        25.7920   -3.3010   11.3000 C.ar  195  HIS195      0.0820
    152  ND1       24.9390   -2.9500   12.3250 N.ar  195  HIS195     -0.2267
    153  CD2       26.6320   -2.2530   11.1320 C.ar  195  HIS195      0.1154
    154  CE1       25.2520   -1.7410   12.7580 C.ar  195  HIS195      0.1986
    155  NE2       26.2760   -1.2970   12.0520 N.ar  195  HIS195     -0.2212
    156  N         26.5940   -7.5690    5.9010 N.3   197  PHE197     -0.1227
    157  CA        27.2630   -7.4660    4.6110 C.3   197  PHE197      0.1736
    158  C         28.6380   -6.8360    4.7710 C.2   197  PHE197      0.2596
    159  O         29.6330   -7.3680    4.2810 O.2   197  PHE197     -0.2718
    160  CB        26.4010   -6.6420    3.6450 C.3   197  PHE197      0.0547
    161  CG        27.1470   -6.1270    2.4440 C.ar  197  PHE197     -0.0202
    162  CD1       27.7720   -4.8820    2.4800 C.ar  197  PHE197     -0.0042
    163  CD2       27.2420   -6.8940    1.2850 C.ar  197  PHE197     -0.0042
    164  CE1       28.4820   -4.4080    1.3780 C.ar  197  PHE197     -0.0003
    165  CE2       27.9510   -6.4280    0.1800 C.ar  197  PHE197     -0.0003
    166  CZ        28.5710   -5.1840    0.2270 C.ar  197  PHE197     -0.0000
    167  N         28.6830   -5.7050    5.4700 N.am  198  THR198     -0.1953
    168  CA        29.9280   -4.9820    5.7010 C.3   198  THR198      0.1897
    169  C         30.9170   -5.8460    6.4680 C.2   198  THR198      0.2313
    170  O         32.1190   -5.8120    6.2050 O.2   198  THR198     -0.2863
    171  CB        29.6790   -3.6900    6.5050 C.3   198  THR198      0.1794
    172  OG1       28.7410   -2.8670    5.8030 O.3   198  THR198     -0.2208
    173  CG2       30.9750   -2.9230    6.6930 C.3   198  THR198      0.0378
    174  N         32.3020   -8.4560    4.1400 N.3   201  LEU201     -0.1245
    175  CA        33.1870   -7.7920    3.1820 C.3   201  LEU201      0.1561
    176  C         34.5680   -7.5080    3.7750 C.2   201  LEU201      0.2260
    177  O         35.5820   -7.7910    3.1410 O.2   201  LEU201     -0.2867
    178  CB        32.5430   -6.4890    2.6770 C.3   201  LEU201      0.0270
    179  CG        33.2920   -5.7160    1.5850 C.3   201  LEU201      0.0019
    180  CD1       33.6160   -6.6340    0.4200 C.3   201  LEU201      0.0001
    181  CD2       32.4360   -4.5440    1.1100 C.3   201  LEU201      0.0001
    182  N         39.2340   -0.3420    3.0990 N.3   212  PHE212     -0.1241
    183  CA        38.5450    0.0400    4.3240 C.3   212  PHE212      0.1605
    184  C         39.3680    1.0290    5.1280 C.2   212  PHE212      0.2264
    185  O         40.5220    0.7610    5.4630 O.2   212  PHE212     -0.2867
    186  CB        38.2480   -1.1800    5.2000 C.3   212  PHE212      0.0534
    187  CG        37.0150   -1.9300    4.7950 C.ar  212  PHE212     -0.0203
    188  CD1       37.0900   -3.0040    3.9150 C.ar  212  PHE212     -0.0042
    189  CD2       35.7700   -1.5500    5.2880 C.ar  212  PHE212     -0.0042
    190  CE1       35.9380   -3.6920    3.5310 C.ar  212  PHE212     -0.0003
    191  CE2       34.6180   -2.2260    4.9120 C.ar  212  PHE212     -0.0003
    192  CZ        34.7000   -3.3010    4.0320 C.ar  212  PHE212     -0.0000
    193  N         36.9130    2.8740   10.3820 N.3   216  MET216     -0.1245
    194  CA        35.7900    2.0120   10.0380 C.3   216  MET216      0.1570
    195  C         36.1410    0.5480   10.2940 C.2   216  MET216      0.2261
    196  O         35.3440   -0.1830   10.8780 O.2   216  MET216     -0.2867
    197  CB        35.3770    2.1990    8.5730 C.3   216  MET216      0.0387
    198  CG        34.1890    1.3280    8.1570 C.3   216  MET216      0.0595
    199  SD        33.6420    1.5870    6.4430 S.3   216  MET216     -0.1393
    200  CE        32.7780    3.1670    6.6180 C.3   216  MET216      0.0692
    201  N         35.9570   -0.2320   13.9440 N.3   219  ILE219     -0.1231
    202  CA        34.5740   -0.2960   14.4060 C.3   219  ILE219      0.1692
    203  C         33.8650   -1.5730   13.9520 C.2   219  ILE219      0.2591
    204  O         33.1310   -2.1870   14.7230 O.2   219  ILE219     -0.2718
    205  CB        33.7830    0.9430   13.9240 C.3   219  ILE219      0.0266
    206  CG1       34.2390    2.1730   14.7210 C.3   219  ILE219      0.0019
    207  CG2       32.2830    0.7140   14.0860 C.3   219  ILE219      0.0020
    208  CD1       33.6240    3.4760   14.2690 C.3   219  ILE219      0.0001
    209  N         34.0890   -1.9690   12.7010 N.am  220  ILE220     -0.1980
    210  CA        33.4680   -3.1730   12.1550 C.3   220  ILE220      0.1595
    211  C         33.9710   -4.4220   12.8700 C.2   220  ILE220      0.2287
    212  O         33.2240   -5.3710   13.0620 O.2   220  ILE220     -0.2864
    213  CB        33.7750   -3.3420   10.6420 C.3   220  ILE220      0.0276
    214  CG1       33.2370   -2.1460    9.8570 C.3   220  ILE220      0.0022
    215  CG2       33.1450   -4.6350   10.1150 C.3   220  ILE220      0.0022
    216  CD1       33.6690   -2.1320    8.4110 C.3   220  ILE220      0.0001
    217  N         30.7150   -3.7820   15.6620 N.3   224  VAL224     -0.1245
    218  CA        29.7090   -4.4800   14.8690 C.3   224  VAL224      0.1561
    219  C         29.4790   -5.9490   15.2680 C.2   224  VAL224      0.2260
    220  O         28.3420   -6.4260   15.2570 O.2   224  VAL224     -0.2867
    221  CB        30.0490   -4.3670   13.3670 C.3   224  VAL224      0.0252
    222  CG1       29.1360   -5.2740   12.5400 C.3   224  VAL224      0.0019
    223  CG2       29.8870   -2.9090   12.9190 C.3   224  VAL224      0.0019
@<TRIPOS>BOND
     1     1     2    1
     2   122   123    1
     3     8     6    1
     4     2     5    1
     5     2     3    1
     6   124   125    2
     7   124   123    1
     8   117   119   ar
     9   117   116   ar
    10   119   121   ar
    11     5     6    1
    12   111   112    1
    13     6     7    1
    14   123   126    1
    15     3     4    2
    16   103   102    2
    17    15    14    1
    18   115   116    1
    19   115   112    1
    20   116   118   ar
    21   126   127    1
    22    14    16    1
    23    14    13    1
    24   121   120   ar
    25     9    10    1
    26   112   113    1
    27   127   128    1
    28   113   114    2
    29   102   101    1
    30   128   129    1
    31    13    10    1
    32   165   166   ar
    33   165   163   ar
    34   166   164   ar
    35   118   120   ar
    36    10    11    1
    37   180   179    1
    38    98    99    1
    39    98    97    1
    40    32    30    1
    41   132   133    2
    42   132   131    1
    43   101   104    1
    44   101   100    1
    45   181   179    1
    46   104   105    1
    47   163   161   ar
    48   164   162   ar
    49    29    30    1
    50    29    26    1
    51   137   136    1
    52   130   131    1
    53   179   178    1
    54    11    17   am
    55    11    12    2
    56    95    94    2
    57    97    96    1
    58    17    18    1
    59   134   131    1
    60   134   135    1
    61    31    30    1
    62   107   106    1
    63   107   108    2
    64   106   105    1
    65    25    26    1
    66    24    22   am
    67   161   162   ar
    68   161   160    1
    69    26    27    1
    70   178   175    1
    71    94    93    1
    72    22    21    1
    73    22    23    2
    74   110   108    1
    75    21    18    1
    76   135   136    1
    77    18    19    1
    78   108   109    1
    79    96    93    1
    80   182   183    1
    81   177   176    2
    82   175   176    1
    83   175   174    1
    84    19    20    2
    85    93    92    1
    86   190   188   ar
    87   190   192   ar
    88   160   157    1
    89   145   143    1
    90    27    33   am
    91    27    28    2
    92   188   187   ar
    93    44    43    2
    94   192   191   ar
    95    33    34    1
    96   159   158    2
    97   183   184    1
    98   183   186    1
    99   157   158    1
   100   157   156    1
   101   158   167   am
   102   187   186    1
   103   187   189   ar
   104   191   189   ar
   105   143   144    1
   106   143   142    1
   107   184   185    2
   108    43    42    1
   109    43    45   am
   110   167   168    1
   111    42    41    1
   112    88    87    2
   113    34    35    1
   114   168   169    1
   115   168   171    1
   116   172   171    1
   117   139   142    1
   118   139   138    1
   119   139   140    1
   120    80    79    2
   121   170   169    2
   122   141   140    2
   123   199   200    1
   124   199   198    1
   125   171   173    1
   126    90    89    1
   127    86    87    1
   128    86    89    1
   129    86    85    1
   130    35    36    2
   131    37    38    1
   132    91    89    1
   133   140   146   am
   134    41    38    1
   135    79    85   am
   136    79    78    1
   137    83    84    1
   138    83    82    1
   139    38    39    1
   140    81    78    1
   141    81    82    1
   142    75    76    1
   143    75    74    1
   144    78    77    1
   145   198   197    1
   146   146   147    1
   147   216   214    1
   148   197   194    1
   149   149   148    2
   150   148   147    1
   151    39    40    2
   152    74    73    1
   153   147   150    1
   154    72    71    2
   155    66    68   ar
   156    66    64   ar
   157   214   213    1
   158   194   195    1
   159   194   193    1
   160    63    64   ar
   161    63    61   ar
   162    68    67   ar
   163   215   213    1
   164   195   196    2
   165    71    70    1
   166    64    62   ar
   167    73    70    1
   168    70    69    1
   169   150   151    1
   170   213   210    1
   171    61    60   ar
   172    58    57    2
   173   153   151   ar
   174   153   155   ar
   175    67    65   ar
   176   151   152   ar
   177    62    60   ar
   178    62    65   ar
   179    69    57   am
   180    57    56    1
   181    60    59    1
   182   155   154   ar
   183   210   209    1
   184   210   211    1
   185   152   154   ar
   186   222   221    1
   187   209   203   am
   188   211   212    2
   189   223   221    1
   190    59    56    1
   191    56    55    1
   192   221   218    1
   193   205   207    1
   194   205   202    1
   195   205   206    1
   196   201   202    1
   197   203   202    1
   198   203   204    2
   199   208   206    1
   200   218   219    1
   201   218   217    1
   202   220   219    2
   203    49    48    2
   204    48    47    1
   205    47    50    1
   206    47    46    1
   207    50    51    1
   208    51    52    1
   209    54    52   am
   210    52    53    2
