@<TRIPOS>MOLECULE
tmp/2axiA00.pdb
 168 160 0 0 0
SMALL
GASTEIGER

@<TRIPOS>ATOM
      1  N         14.8510   10.0620    0.3550 N.3    29  LYS29      -0.1245
      2  CA        14.1700    9.3400   -0.7260 C.3    29  LYS29       0.1561
      3  C         13.2130    8.2650   -0.2310 C.2    29  LYS29       0.2260
      4  O         12.1050    8.1110   -0.7170 O.2    29  LYS29      -0.2867
      5  CB        15.2060    8.6900   -1.6620 C.3    29  LYS29       0.0271
      6  CG        14.5910    8.0830   -2.9090 C.3    29  LYS29       0.0035
      7  CD        15.5480    7.6720   -3.9910 C.3    29  LYS29       0.0206
      8  CE        15.1130    6.5670   -4.9010 C.3    29  LYS29       0.1093
      9  NZ        14.1110    6.6560   -5.9800 N.3    29  LYS29      -0.1314
     10  N         10.1480    9.8210    1.3610 N.3    32  LEU32      -0.1231
     11  CA         9.2090   10.3170    0.3520 C.3    32  LEU32       0.1693
     12  C          8.4660    9.1670   -0.3210 C.2    32  LEU32       0.2592
     13  O          7.2580    9.2580   -0.5430 O.2    32  LEU32      -0.2718
     14  CB         9.9630   11.1450   -0.6780 C.3    32  LEU32       0.0284
     15  CG        10.5400   12.4760   -0.1420 C.3    32  LEU32       0.0019
     16  CD1       11.5260   13.0580   -1.1460 C.3    32  LEU32       0.0001
     17  CD2        9.3990   13.4570    0.1530 C.3    32  LEU32       0.0001
     18  N          9.2450    8.1110   -0.6340 N.am   33  PHE33      -0.1976
     19  CA         8.5910    6.9820   -1.3000 C.3    33  PHE33       0.1639
     20  C          7.5420    6.3340   -0.4110 C.2    33  PHE33       0.2290
     21  O          6.4210    6.0370   -0.8290 O.2    33  PHE33      -0.2864
     22  CB         9.6840    5.9830   -1.6720 C.3    33  PHE33       0.0560
     23  CG         9.1420    4.7370   -2.3290 C.ar   33  PHE33      -0.0200
     24  CD1        8.8250    4.7680   -3.6920 C.ar   33  PHE33      -0.0042
     25  CD2        9.0140    3.5850   -1.5640 C.ar   33  PHE33      -0.0042
     26  CE1        8.3620    3.6130   -4.3390 C.ar   33  PHE33      -0.0003
     27  CE2        8.5430    2.4500   -2.2280 C.ar   33  PHE33      -0.0003
     28  CZ         8.2560    2.4590   -3.5840 C.ar   33  PHE33      -0.0000
     29  N          5.8920    7.6390    2.0730 N.3    35  LEU35      -0.1231
     30  CA         4.6740    8.4680    2.1880 C.3    35  LEU35       0.1693
     31  C          3.7650    8.3670    0.9710 C.2    35  LEU35       0.2593
     32  O          2.5500    8.4290    1.0930 O.2    35  LEU35      -0.2718
     33  CB         5.1020    9.9050    2.4200 C.3    35  LEU35       0.0284
     34  CG         5.4550   10.1760    3.8840 C.3    35  LEU35       0.0019
     35  CD1        5.8810   11.6480    3.9820 C.3    35  LEU35       0.0001
     36  CD2        4.3040    9.8870    4.8260 C.3    35  LEU35       0.0001
     37  N          4.3460    8.2470   -0.2200 N.am   36  GLY36      -0.1942
     38  CA         3.5340    8.0090   -1.4110 C.3    36  GLY36       0.2014
     39  C          2.7900    6.6880   -1.2720 C.2    36  GLY36       0.2638
     40  O          1.6010    6.6330   -1.6190 O.2    36  GLY36      -0.2714
     41  N          3.4800    5.6470   -0.7850 N.am   37  GLN37      -0.1977
     42  CA         2.7930    4.3610   -0.6140 C.3    37  GLN37       0.1601
     43  C          1.7140    4.5070    0.4430 C.2    37  GLN37       0.2287
     44  O          0.6580    3.8590    0.3810 O.2    37  GLN37      -0.2864
     45  CB         3.7640    3.2780   -0.1850 C.3    37  GLN37       0.0394
     46  CG         4.8330    2.9920   -1.2610 C.3    37  GLN37       0.0908
     47  CD         5.6060    1.7550   -0.8090 C.2    37  GLN37       0.2608
     48  OE1        6.1260    1.7780    0.3160 O.2    37  GLN37      -0.2717
     49  NE2        5.5850    0.7030   -1.6540 N.am   37  GLN37      -0.0878
     50  N         -0.2040    7.1030    1.1020 N.3    39  ILE39      -0.1231
     51  CA        -1.3750    7.7220    0.4700 C.3    39  ILE39       0.1692
     52  C         -2.1080    6.7340   -0.4210 C.2    39  ILE39       0.2591
     53  O         -3.3270    6.6790   -0.4660 O.2    39  ILE39      -0.2718
     54  CB        -0.9440    8.9880   -0.2700 C.3    39  ILE39       0.0266
     55  CG1       -0.4580   10.0740    0.7110 C.3    39  ILE39       0.0019
     56  CG2       -2.0860    9.4660   -1.1600 C.3    39  ILE39       0.0020
     57  CD1        0.3280   11.2020    0.0580 C.3    39  ILE39       0.0001
     58  N         -1.3080    5.9220   -1.1400 N.am   40  MET40      -0.1979
     59  CA        -1.8980    4.8810   -1.9770 C.3    40  MET40       0.1605
     60  C         -2.7050    3.8900   -1.1520 C.2    40  MET40       0.2287
     61  O         -3.8320    3.5370   -1.4390 O.2    40  MET40      -0.2864
     62  CB        -0.7890    4.0880   -2.6780 C.3    40  MET40       0.0413
     63  CG        -1.2350    2.7270   -3.3160 C.3    40  MET40       0.0598
     64  SD         0.1830    1.7950   -3.9200 S.3    40  MET40      -0.1393
     65  CE         0.9770    1.3050   -2.3840 C.3    40  MET40       0.0692
     66  N         -6.1050    9.6820   -2.0530 N.3    45  TYR45      -0.1241
     67  CA        -6.2010   10.4780   -3.2820 C.3    45  TYR45       0.1605
     68  C         -7.6050   10.2970   -3.8560 C.2    45  TYR45       0.2264
     69  O         -8.3060    9.2910   -3.6960 O.2    45  TYR45      -0.2867
     70  CB        -5.0710   10.1240   -4.2640 C.3    45  TYR45       0.0534
     71  CG        -5.1860    8.7060   -4.7850 C.ar   45  TYR45      -0.0201
     72  CD1       -5.8410    8.4580   -5.9970 C.ar   45  TYR45      -0.0009
     73  CD2       -4.6540    7.6490   -4.0790 C.ar   45  TYR45      -0.0009
     74  CE1       -5.9380    7.1500   -6.4620 C.ar   45  TYR45       0.0417
     75  CE2       -4.7400    6.3360   -4.5180 C.ar   45  TYR45       0.0417
     76  CZ        -5.3960    6.1210   -5.7190 C.ar   45  TYR45       0.1957
     77  OH        -5.4990    4.8470   -6.1950 O.3    45  TYR45      -0.2866
     78  N         -6.4660   12.4740   -9.3470 N.3    50  GLN50      -0.1245
     79  CA        -5.5680   11.7090   -8.4730 C.3    50  GLN50       0.1566
     80  C         -4.4890   12.5430   -7.8420 C.2    50  GLN50       0.2260
     81  O         -3.8220   12.0680   -6.9040 O.2    50  GLN50      -0.2867
     82  CB        -4.9420   10.5100   -9.2350 C.3    50  GLN50       0.0367
     83  CG        -6.0260    9.5020   -9.6520 C.3    50  GLN50       0.0905
     84  CD        -6.3550    9.7640  -11.1330 C.2    50  GLN50       0.2608
     85  OE1       -6.2310   10.9200  -11.5720 O.2    50  GLN50      -0.2717
     86  NE2       -6.7480    8.7700  -11.9240 N.am   50  GLN50      -0.0878
     87  N         -5.1030   15.0810   -2.6890 N.3    53  VAL53      -0.1245
     88  CA        -5.1300   14.2580   -1.4880 C.3    53  VAL53       0.1561
     89  C         -6.0410   14.8810   -0.4420 C.2    53  VAL53       0.2260
     90  O         -5.9080   16.0630   -0.1340 O.2    53  VAL53      -0.2867
     91  CB        -3.7110   14.1290   -0.9240 C.3    53  VAL53       0.0252
     92  CG1       -3.7550   13.2670    0.3430 C.3    53  VAL53       0.0019
     93  CG2       -2.7420   13.5520   -1.9380 C.3    53  VAL53       0.0019
     94  N         -2.3750   11.7160    8.4230 N.3    60  LEU60      -0.1245
     95  CA        -1.5640   12.5360    7.5130 C.3    60  LEU60       0.1561
     96  C         -1.9270   14.0110    7.5820 C.2    60  LEU60       0.2260
     97  O         -1.0830   14.9030    7.4350 O.2    60  LEU60      -0.2867
     98  CB        -1.7250   11.9680    6.0880 C.3    60  LEU60       0.0270
     99  CG        -0.8800   12.7280    5.0560 C.3    60  LEU60       0.0019
    100  CD1        0.6070   12.4940    5.2890 C.3    60  LEU60       0.0001
    101  CD2       -1.2660   12.3200    3.6340 C.3    60  LEU60       0.0001
    102  N          0.4920   17.5060    7.7880 N.3    64  PHE64      -0.1241
    103  CA         0.4460   18.5920    6.8170 C.3    64  PHE64       0.1605
    104  C         -0.2530   19.8270    7.3450 C.2    64  PHE64       0.2264
    105  O          0.0090   20.9150    6.7960 O.2    64  PHE64      -0.2867
    106  CB        -0.3190   18.1160    5.5680 C.3    64  PHE64       0.0534
    107  CG         0.6680   17.6580    4.5100 C.ar   64  PHE64      -0.0203
    108  CD1        1.0310   18.4890    3.4630 C.ar   64  PHE64      -0.0042
    109  CD2        1.2070   16.3950    4.6220 C.ar   64  PHE64      -0.0042
    110  CE1        1.9420   18.0450    2.5320 C.ar   64  PHE64      -0.0003
    111  CE2        2.1070   15.9400    3.6900 C.ar   64  PHE64      -0.0003
    112  CZ         2.4580   16.7720    2.6450 C.ar   64  PHE64      -0.0000
    113  N         -4.5620   18.7040   -0.0580 N.3    69  PHE69      -0.1241
    114  CA        -3.4750   19.3590   -0.7660 C.3    69  PHE69       0.1605
    115  C         -3.3010   18.6590   -2.1110 C.2    69  PHE69       0.2264
    116  O         -3.8630   17.5910   -2.2960 O.2    69  PHE69      -0.2867
    117  CB        -2.1470   19.4300   -0.0100 C.3    69  PHE69       0.0534
    118  CG        -1.5700   18.0450    0.2760 C.ar   69  PHE69      -0.0203
    119  CD1       -0.6120   17.5120   -0.5740 C.ar   69  PHE69      -0.0042
    120  CD2       -1.9990   17.3080    1.3840 C.ar   69  PHE69      -0.0042
    121  CE1       -0.0720   16.2640   -0.3880 C.ar   69  PHE69      -0.0003
    122  CE2       -1.4600   16.0500    1.5930 C.ar   69  PHE69      -0.0003
    123  CZ        -0.4960   15.5420    0.7320 C.ar   69  PHE69      -0.0000
    124  N         -0.6520   17.0360   -4.9400 N.3    71  VAL71      -0.1245
    125  CA         0.6960   16.4880   -5.0920 C.3    71  VAL71       0.1561
    126  C          1.5720   17.4300   -5.9010 C.2    71  VAL71       0.2260
    127  O          2.7890   17.2630   -5.8460 O.2    71  VAL71      -0.2867
    128  CB         0.7500   15.0660   -5.7030 C.3    71  VAL71       0.0252
    129  CG1       -0.1470   14.1430   -4.8870 C.3    71  VAL71       0.0019
    130  CG2        0.3790   15.0930   -7.1840 C.3    71  VAL71       0.0019
    131  N          4.9700   20.7670   -4.4640 N.3    74  HIS74      -0.1241
    132  CA         6.2350   20.1460   -4.0740 C.3    74  HIS74       0.1621
    133  C          6.9070   20.8580   -2.9050 C.2    74  HIS74       0.2264
    134  O          7.3540   20.2080   -1.9460 O.2    74  HIS74      -0.2867
    135  CB         7.1750   20.1040   -5.2870 C.3    74  HIS74       0.0745
    136  CG         6.7690   19.1270   -6.3520 C.ar   74  HIS74       0.0817
    137  ND1        5.6160   18.3790   -6.4100 N.ar   74  HIS74      -0.2268
    138  CD2        7.4810   18.7680   -7.4520 C.ar   74  HIS74       0.1154
    139  CE1        5.6050   17.6160   -7.4840 C.ar   74  HIS74       0.1986
    140  NE2        6.7210   17.8320   -8.1330 N.ar   74  HIS74      -0.2212
    141  N          5.1390   20.0530    0.2960 N.3    77  ILE77      -0.1231
    142  CA         5.3230   18.6480    0.6980 C.3    77  ILE77       0.1692
    143  C          6.6840   18.4560    1.3560 C.2    77  ILE77       0.2592
    144  O          6.7500   17.9460    2.4690 O.2    77  ILE77      -0.2718
    145  CB         5.1050   17.7250   -0.5020 C.3    77  ILE77       0.0266
    146  CG1        3.6050   17.7660   -0.8840 C.3    77  ILE77       0.0019
    147  CG2        5.5690   16.3120   -0.2200 C.3    77  ILE77       0.0020
    148  CD1        3.3400   17.0910   -2.2040 C.3    77  ILE77       0.0001
    149  N          7.7110   18.9400    0.6810 N.am   78  TYR78      -0.1976
    150  CA         9.0460   18.8280    1.2410 C.3    78  TYR78       0.1639
    151  C          9.1400   19.5400    2.5770 C.2    78  TYR78       0.2290
    152  O          9.7640   18.9730    3.4840 O.2    78  TYR78      -0.2864
    153  CB        10.0980   19.4260    0.2870 C.3    78  TYR78       0.0560
    154  CG        10.5080   18.3950   -0.7550 C.ar   78  TYR78      -0.0198
    155  CD1        9.7290   18.1720   -1.8700 C.ar   78  TYR78      -0.0009
    156  CD2       11.6590   17.6540   -0.6330 C.ar   78  TYR78      -0.0009
    157  CE1       10.1170   17.2220   -2.8140 C.ar   78  TYR78       0.0417
    158  CE2       12.0630   16.7080   -1.5550 C.ar   78  TYR78       0.0417
    159  CZ        11.2750   16.4810   -2.6660 C.ar   78  TYR78       0.1957
    160  OH        11.6470   15.5620   -3.6180 O.3    78  TYR78      -0.2866
    161  N          7.3660   17.6400    5.3970 N.3    81  ILE81      -0.1245
    162  CA         8.0960   16.4100    5.7690 C.3    81  ILE81       0.1561
    163  C          9.3520   16.7850    6.5170 C.2    81  ILE81       0.2260
    164  O          9.6390   16.2130    7.5680 O.2    81  ILE81      -0.2867
    165  CB         8.3460   15.5760    4.5030 C.3    81  ILE81       0.0252
    166  CG1        7.0250   15.1530    3.8930 C.3    81  ILE81       0.0019
    167  CG2        9.2940   14.4130    4.8600 C.3    81  ILE81       0.0019
    168  CD1        7.1440   14.5460    2.5070 C.3    81  ILE81       0.0001
@<TRIPOS>BOND
     1    86    84   am
     2    85    84    2
     3    84    83    1
     4    83    82    1
     5    78    79    1
     6    82    79    1
     7    79    80    1
     8   140   139   ar
     9   140   138   ar
    10    80    81    2
    11   139   137   ar
    12   138   136   ar
    13   130   128    1
    14    74    72   ar
    15    74    76   ar
    16   137   136   ar
    17   136   135    1
    18    77    76    1
    19    72    71   ar
    20     9     8    1
    21   126   127    2
    22   126   125    1
    23    76    75   ar
    24   128   125    1
    25   128   129    1
    26   135   132    1
    27   125   124    1
    28     8     7    1
    29    71    70    1
    30    71    73   ar
    31    75    73   ar
    32   131   132    1
    33    26    24   ar
    34    26    28   ar
    35    70    67    1
    36   132   133    1
    37     7     6    1
    38    64    63    1
    39    64    65    1
    40    68    69    2
    41    68    67    1
    42    24    23   ar
    43   160   159    1
    44    28    27   ar
    45    63    62    1
    46    67    66    1
    47     6     5    1
    48   133   134    2
    49   157   159   ar
    50   157   155   ar
    51    87    88    1
    52    62    59    1
    53   159   158   ar
    54    23    22    1
    55    23    25   ar
    56   116   115    2
    57    27    25   ar
    58   148   146    1
    59   115   114    1
    60    59    60    1
    61    59    58    1
    62    93    91    1
    63   155   154   ar
    64    22    19    1
    65     5     2    1
    66    49    47   am
    67    40    39    2
    68   158   156   ar
    69    88    91    1
    70    88    89    1
    71    61    60    2
    72    38    39    1
    73    38    37    1
    74    19    18    1
    75    19    20    1
    76    39    41   am
    77    46    47    1
    78    46    45    1
    79    56    54    1
    80    16    15    1
    81    58    52   am
    82    91    92    1
    83   146   145    1
    84    21    20    2
    85    47    48    2
    86    41    42    1
    87   114   113    1
    88   114   117    1
    89   154   156   ar
    90   154   153    1
    91     2     3    1
    92     2     1    1
    93     4     3    2
    94    14    15    1
    95    14    11    1
    96    18    12   am
    97    42    45    1
    98    42    43    1
    99   119   121   ar
   100   119   118   ar
   101    13    12    2
   102   145   147    1
   103   145   142    1
   104    53    52    2
   105    89    90    2
   106    52    51    1
   107   121   123   ar
   108    12    11    1
   109    54    51    1
   110    54    55    1
   111    37    31   am
   112    15    17    1
   113   117   118    1
   114    57    55    1
   115   118   120   ar
   116   153   150    1
   117   141   142    1
   118    11    10    1
   119    44    43    2
   120    51    50    1
   121   149   150    1
   122   149   143   am
   123   142   143    1
   124   123   122   ar
   125    31    32    2
   126    31    30    1
   127   150   151    1
   128   143   144    2
   129   120   122   ar
   130    29    30    1
   131    30    33    1
   132    33    34    1
   133   168   166    1
   134   110   112   ar
   135   110   108   ar
   136   151   152    2
   137   112   111   ar
   138   108   107   ar
   139   101    99    1
   140   111   109   ar
   141    34    35    1
   142    34    36    1
   143   166   165    1
   144   165   167    1
   145   165   162    1
   146   107   109   ar
   147   107   106    1
   148    99   100    1
   149    99    98    1
   150   161   162    1
   151   106   103    1
   152   162   163    1
   153    98    95    1
   154   163   164    2
   155   105   104    2
   156   103   104    1
   157   103   102    1
   158    97    96    2
   159    95    96    1
   160    95    94    1
