@<TRIPOS>MOLECULE
tmp/2axnA00.pdb
 183 174 0 0 0
SMALL
GASTEIGER

@<TRIPOS>ATOM
      1  N        -38.7770   58.2700   17.4480 N.3   248  ARG248     -0.1231
      2  CA       -39.3530   59.5020   17.9600 C.3   248  ARG248      0.1694
      3  C        -40.2110   59.1770   19.1790 C.2   248  ARG248      0.2592
      4  O        -40.4800   58.0080   19.4830 O.2   248  ARG248     -0.2718
      5  CB       -40.2240   60.1510   16.8790 C.3   248  ARG248      0.0321
      6  CG       -39.4360   60.5990   15.6580 C.3   248  ARG248      0.0489
      7  CD       -40.3360   60.8740   14.4520 C.3   248  ARG248      0.2205
      8  NE       -41.2360   62.0070   14.6560 N.pl3 248  ARG248     -0.0865
      9  CZ       -42.1480   62.4090   13.7730 C.cat 248  ARG248      0.5346
     10  NH1      -42.9230   63.4490   14.0440 N.pl3 248  ARG248      0.1354
     11  NH2      -42.2960   61.7640   12.6200 N.pl3 248  ARG248      0.1354
     12  N        -40.6140   60.2240   19.8880 N.am  249  HIS249     -0.1976
     13  CA       -41.5070   60.1050   21.0280 C.3   249  HIS249      0.1656
     14  C        -42.8050   59.5200   20.4570 C.2   249  HIS249      0.2291
     15  O        -43.0790   59.6700   19.2750 O.2   249  HIS249     -0.2864
     16  CB       -41.8230   61.5080   21.5530 C.3   249  HIS249      0.0771
     17  CG       -42.1770   62.4820   20.4690 C.ar  249  HIS249      0.0820
     18  ND1      -43.4340   62.5650   19.9140 N.ar  249  HIS249     -0.2267
     19  CD2      -41.4100   63.3690   19.7880 C.ar  249  HIS249      0.1154
     20  CE1      -43.4320   63.4590   18.9410 C.ar  249  HIS249      0.1986
     21  NE2      -42.2150   63.9610   18.8400 N.ar  249  HIS249     -0.2212
     22  N        -49.0330   66.8290   17.6970 N.3   255  ASN255     -0.1240
     23  CA       -49.0170   66.1220   16.4190 C.3   255  ASN255      0.1653
     24  C        -50.4750   66.0330   15.9100 C.2   255  ASN255      0.2266
     25  O        -50.7580   66.3260   14.7550 O.2   255  ASN255     -0.2867
     26  CB       -48.4090   64.7250   16.5940 C.3   255  ASN255      0.1155
     27  CG       -46.9420   64.7810   17.0100 C.2   255  ASN255      0.2627
     28  OD1      -46.1820   65.6300   16.5360 O.2   255  ASN255     -0.2716
     29  ND2      -46.5420   63.8780   17.8750 N.am  255  ASN255     -0.0877
     30  N        -49.5330   70.9200   14.9770 N.3   259  ARG259     -0.1231
     31  CA       -48.7680   72.0680   15.4720 C.3   259  ARG259      0.1694
     32  C        -47.3190   71.6780   15.6790 C.2   259  ARG259      0.2592
     33  O        -47.0330   70.5850   16.1760 O.2   259  ARG259     -0.2718
     34  CB       -49.3340   72.5620   16.8000 C.3   259  ARG259      0.0321
     35  CG       -50.6730   73.2500   16.6530 C.3   259  ARG259      0.0489
     36  CD       -51.2300   73.7640   17.9820 C.3   259  ARG259      0.2205
     37  NE       -52.5180   74.4040   17.7260 N.pl3 259  ARG259     -0.0865
     38  CZ       -52.6680   75.5370   17.0450 C.cat 259  ARG259      0.5346
     39  NH1      -51.6090   76.1770   16.5710 N.pl3 259  ARG259      0.1354
     40  NH2      -53.8860   75.9940   16.7740 N.pl3 259  ARG259      0.1354
     41  N        -46.4110   72.5780   15.3230 N.am  260  ILE260     -0.1966
     42  CA       -44.9830   72.3050   15.4620 C.3   260  ILE260      0.1727
     43  C        -44.3790   72.8030   16.7750 C.2   260  ILE260      0.2616
     44  O        -44.9180   73.7140   17.4230 O.2   260  ILE260     -0.2715
     45  CB       -44.1930   72.9140   14.2900 C.3   260  ILE260      0.0290
     46  CG1      -44.1580   74.4340   14.4030 C.3   260  ILE260      0.0022
     47  CG2      -44.8400   72.5240   12.9600 C.3   260  ILE260      0.0023
     48  CD1      -43.1150   75.0440   13.4760 C.3   260  ILE260      0.0001
     49  N        -43.2610   72.1970   17.1710 N.am  261  GLY261     -0.1955
     50  CA       -42.6030   72.5870   18.4020 C.3   261  GLY261      0.1869
     51  C        -43.4260   72.2970   19.6430 C.2   261  GLY261      0.2309
     52  O        -44.2280   71.3630   19.6820 O.2   261  GLY261     -0.2863
     53  N        -36.1960   69.0590   20.0900 N.3   318  GLU318     -0.1231
     54  CA       -36.5350   69.2890   18.6910 C.3   318  GLU318      0.1699
     55  C        -36.0690   70.6600   18.2060 C.2   318  GLU318      0.2592
     56  O        -35.9140   71.5810   18.9980 O.2   318  GLU318     -0.2718
     57  CB       -38.0560   69.1360   18.4830 C.3   318  GLU318      0.0402
     58  CG       -38.5460   69.3280   17.0190 C.3   318  GLU318      0.1161
     59  CD       -37.9210   68.3620   15.9870 C.2   318  GLU318      0.3649
     60  OE1      -36.6670   68.2110   15.9620 O.co2 318  GLU318     -0.2457
     61  OE2      -38.6940   67.7780   15.1720 O.co2 318  GLU318     -0.2457
     62  N        -35.8320   70.7870   16.9030 N.am  319  ILE319     -0.1980
     63  CA       -35.3930   72.0450   16.3160 C.3   319  ILE319      0.1595
     64  C        -36.2780   73.1630   16.8990 C.2   319  ILE319      0.2287
     65  O        -37.4820   72.9830   17.0990 O.2   319  ILE319     -0.2864
     66  CB       -35.4960   71.9640   14.7670 C.3   319  ILE319      0.0276
     67  CG1      -34.7680   73.1440   14.1130 C.3   319  ILE319      0.0022
     68  CG2      -36.9540   71.9110   14.3310 C.3   319  ILE319      0.0022
     69  CD1      -34.5260   72.9230   12.5970 C.3   319  ILE319      0.0001
     70  N        -38.3110   76.2940   16.5550 N.3   321  ALA321     -0.1245
     71  CA       -38.9470   77.0590   15.4830 C.3   321  ALA321      0.1562
     72  C        -39.0910   78.5520   15.7420 C.2   321  ALA321      0.2260
     73  O        -39.7950   79.2390   14.9860 O.2   321  ALA321     -0.2867
     74  CB       -40.3070   76.4600   15.1580 C.3   321  ALA321      0.0290
     75  N        -48.6400   74.5100   10.2950 N.3   329  TYR329     -0.1241
     76  CA       -47.9970   74.9540    9.0650 C.3   329  TYR329      0.1605
     77  C        -48.9070   75.9220    8.2960 C.2   329  TYR329      0.2264
     78  O        -48.4280   76.8260    7.5960 O.2   329  TYR329     -0.2867
     79  CB       -47.6210   73.7590    8.1870 C.3   329  TYR329      0.0534
     80  CG       -46.4760   72.9220    8.7360 C.ar  329  TYR329     -0.0201
     81  CD1      -46.7190   71.7310    9.4050 C.ar  329  TYR329     -0.0009
     82  CD2      -45.1480   73.3210    8.5630 C.ar  329  TYR329     -0.0009
     83  CE1      -45.6740   70.9520    9.8820 C.ar  329  TYR329      0.0417
     84  CE2      -44.0960   72.5480    9.0450 C.ar  329  TYR329      0.0417
     85  CZ       -44.3640   71.3680    9.6990 C.ar  329  TYR329      0.1957
     86  OH       -43.3300   70.5920   10.1770 O.3   329  TYR329     -0.2866
     87  N        -38.2430   78.8290    3.6600 N.3   343  ARG343     -0.1245
     88  CA       -37.8900   77.5220    4.2070 C.3   343  ARG343      0.1563
     89  C        -38.0770   76.4210    3.1550 C.2   343  ARG343      0.2260
     90  O        -37.2190   75.5500    2.9930 O.2   343  ARG343     -0.2867
     91  CB       -38.7400   77.2200    5.4400 C.3   343  ARG343      0.0307
     92  CG       -38.2790   75.9940    6.2180 C.3   343  ARG343      0.0489
     93  CD       -38.8840   75.9580    7.6210 C.3   343  ARG343      0.2205
     94  NE       -38.2120   74.9970    8.4900 N.pl3 343  ARG343     -0.0865
     95  CZ       -38.6350   73.7560    8.7210 C.cat 343  ARG343      0.5346
     96  NH1      -39.7410   73.3030    8.1470 N.pl3 343  ARG343      0.1354
     97  NH2      -37.9540   72.9640    9.5420 N.pl3 343  ARG343      0.1354
     98  N        -34.6000   74.3100    2.8110 N.3   347  LYS347     -0.1245
     99  CA       -34.8920   73.7160    4.1010 C.3   347  LYS347      0.1561
    100  C        -33.7030   73.3930    5.0130 C.2   347  LYS347      0.2260
    101  O        -33.8480   73.3920    6.2220 O.2   347  LYS347     -0.2867
    102  CB       -35.7620   72.4680    3.9020 C.3   347  LYS347      0.0271
    103  CG       -36.4820   72.0540    5.1620 C.3   347  LYS347      0.0035
    104  CD       -37.4180   70.8720    4.9300 C.3   347  LYS347      0.0206
    105  CE       -38.1370   70.5350    6.2130 C.3   347  LYS347      0.1093
    106  NZ       -38.9790   69.3230    6.1070 N.3   347  LYS347     -0.1314
    107  N        -35.3610   79.5630   11.3570 N.3   352  TYR352     -0.1241
    108  CA       -36.5900   80.2180   11.8160 C.3   352  TYR352      0.1605
    109  C        -36.1980   81.5170   12.5610 C.2   352  TYR352      0.2264
    110  O        -35.1210   81.5860   13.1640 O.2   352  TYR352     -0.2867
    111  CB       -37.3480   79.3290   12.7940 C.3   352  TYR352      0.0534
    112  CG       -38.2680   78.3030   12.1730 C.ar  352  TYR352     -0.0201
    113  CD1      -37.9340   76.9400   12.1720 C.ar  352  TYR352     -0.0009
    114  CD2      -39.4990   78.6880   11.6140 C.ar  352  TYR352     -0.0009
    115  CE1      -38.8090   75.9700   11.6360 C.ar  352  TYR352      0.0417
    116  CE2      -40.3780   77.7370   11.0670 C.ar  352  TYR352      0.0417
    117  CZ       -40.0250   76.3810   11.0860 C.ar  352  TYR352      0.1957
    118  OH       -40.8980   75.4540   10.5590 O.3   352  TYR352     -0.2866
    119  N        -31.5420   73.3450   10.2140 N.3   358  TYR358     -0.1241
    120  CA       -31.0300   71.9870   10.3600 C.3   358  TYR358      0.1605
    121  C        -29.5080   72.1060   10.5680 C.2   358  TYR358      0.2264
    122  O        -28.8990   71.2990   11.2610 O.2   358  TYR358     -0.2867
    123  CB       -31.3110   71.1500    9.1070 C.3   358  TYR358      0.0534
    124  CG       -32.6550   70.4850    9.1350 C.ar  358  TYR358     -0.0201
    125  CD1      -33.8150   71.2070    8.8560 C.ar  358  TYR358     -0.0009
    126  CD2      -32.7800   69.1590    9.5060 C.ar  358  TYR358     -0.0009
    127  CE1      -35.0680   70.6090    8.9540 C.ar  358  TYR358      0.0417
    128  CE2      -34.0240   68.5530    9.6140 C.ar  358  TYR358      0.0417
    129  CZ       -35.1680   69.2860    9.3370 C.ar  358  TYR358      0.1957
    130  OH       -36.4140   68.7040    9.4520 O.3   358  TYR358     -0.2866
    131  N        -36.9360   63.4670   18.2380 N.3   383  HIS383     -0.1226
    132  CA       -37.9560   64.1660   17.4530 C.3   383  HIS383      0.1752
    133  C        -37.6120   64.1530   15.9590 C.2   383  HIS383      0.2596
    134  O        -36.4650   63.8900   15.5780 O.2   383  HIS383     -0.2718
    135  CB       -38.0850   65.6170   17.9410 C.3   383  HIS383      0.0759
    136  CG       -38.2060   65.7430   19.4280 C.ar  383  HIS383      0.0818
    137  ND1      -39.3960   66.0330   20.0530 N.ar  383  HIS383     -0.2268
    138  CD2      -37.2810   65.6040   20.4120 C.ar  383  HIS383      0.1154
    139  CE1      -39.2020   66.0690   21.3630 C.ar  383  HIS383      0.1986
    140  NE2      -37.9320   65.8110   21.6050 N.ar  383  HIS383     -0.2212
    141  N        -38.6070   64.4600   15.1240 N.am  384  GLN384     -0.1965
    142  CA       -38.4420   64.4150   13.6840 C.3   384  GLN384      0.1733
    143  C        -37.1900   65.0430   13.0870 C.2   384  GLN384      0.2616
    144  O        -36.4110   64.3350   12.4260 O.2   384  GLN384     -0.2715
    145  CB       -39.6800   64.9900   12.9810 C.3   384  GLN384      0.0408
    146  CG       -39.6600   64.8480   11.4710 C.3   384  GLN384      0.0908
    147  CD       -41.0530   64.9710   10.8410 C.2   384  GLN384      0.2608
    148  OE1      -41.6270   63.9740   10.3720 O.2   384  GLN384     -0.2717
    149  NE2      -41.6050   66.1930   10.8320 N.am  384  GLN384     -0.0878
    150  N        -36.9990   66.3510   13.2740 N.am  385  ALA385     -0.1977
    151  CA       -35.8320   67.0010   12.6830 C.3   385  ALA385      0.1597
    152  C        -34.5160   66.4570   13.2690 C.2   385  ALA385      0.2287
    153  O        -33.5480   66.2300   12.5270 O.2   385  ALA385     -0.2864
    154  CB       -35.9260   68.5210   12.8560 C.3   385  ALA385      0.0319
    155  N        -33.7780   63.0040   11.7680 N.3   388  ARG388     -0.1245
    156  CA       -33.2740   63.1580   10.4070 C.3   388  ARG388      0.1563
    157  C        -31.7710   63.4780   10.4360 C.2   388  ARG388      0.2260
    158  O        -30.9830   62.8980    9.6600 O.2   388  ARG388     -0.2867
    159  CB       -34.0180   64.2860    9.6900 C.3   388  ARG388      0.0307
    160  CG       -35.4250   63.9060    9.2180 C.3   388  ARG388      0.0489
    161  CD       -36.1680   65.0980    8.6520 C.3   388  ARG388      0.2205
    162  NE       -37.4530   64.7050    8.0710 N.pl3 388  ARG388     -0.0865
    163  CZ       -38.5210   65.4900    7.9810 C.cat 388  ARG388      0.5346
    164  NH1      -38.4860   66.7420    8.4430 N.pl3 388  ARG388      0.1354
    165  NH2      -39.6300   65.0220    7.4260 N.pl3 388  ARG388      0.1354
    166  N        -46.3980   63.0670   10.0280 N.3   436  THR436     -0.1218
    167  CA       -45.8240   64.4110   10.0530 C.3   436  THR436      0.1862
    168  C        -44.8510   64.6790    8.9080 C.2   436  THR436      0.2287
    169  O        -44.2280   65.7440    8.8680 O.2   436  THR436     -0.2866
    170  CB       -45.0610   64.6670   11.3720 C.3   436  THR436      0.1770
    171  OG1      -44.1150   63.6080   11.5790 O.3   436  THR436     -0.2211
    172  CG2      -46.0140   64.7380   12.5510 C.3   436  THR436      0.0375
    173  N        -43.4250   65.6870    5.2580 N.3   438  ARG438     -0.1245
    174  CA       -43.8210   66.6290    4.2210 C.3   438  ARG438      0.1563
    175  C        -42.7480   66.7780    3.1510 C.2   438  ARG438      0.2260
    176  O        -41.6620   67.2970    3.4230 O.2   438  ARG438     -0.2867
    177  CB       -44.1320   67.9880    4.8530 C.3   438  ARG438      0.0307
    178  CG       -44.5150   67.8910    6.3250 C.3   438  ARG438      0.0489
    179  CD       -45.5540   68.9280    6.7030 C.3   438  ARG438      0.2205
    180  NE       -45.1990   70.2680    6.2510 N.pl3 438  ARG438     -0.0865
    181  CZ       -46.0920   71.1860    5.8920 C.cat 438  ARG438      0.5346
    182  NH1      -47.3870   70.9020    5.9380 N.pl3 438  ARG438      0.1354
    183  NH2      -45.6920   72.3750    5.4600 N.pl3 438  ARG438      0.1354
@<TRIPOS>BOND
     1    98    99    1
     2    90    89    2
     3   175   176    2
     4   175   174    1
     5    89    88    1
     6    87    88    1
     7   102    99    1
     8   102   103    1
     9    99   100    1
    10    88    91    1
    11   174   177    1
    12   174   173    1
    13   177   178    1
    14   104   103    1
    15   104   105    1
    16   100   101    2
    17    91    92    1
    18   183   181    1
    19   181   182    1
    20   181   180    2
    21   106   105    1
    22    92    93    1
    23   180   179    1
    24   178   179    1
    25   165   163    1
    26    78    77    2
    27    93    94    1
    28   163   162    2
    29   163   164    1
    30   162   161    1
    31    96    95    1
    32    79    80    1
    33    79    76    1
    34    77    76    1
    35    94    95    2
    36    82    80   ar
    37    82    84   ar
    38   161   160    1
    39    95    97    1
    40    80    81   ar
    41   125   127   ar
    42   125   124   ar
    43   169   168    2
    44   168   167    1
    45   127   129   ar
    46    84    85   ar
    47    76    75    1
    48   123   124    1
    49   123   120    1
    50   124   126   ar
    51   160   159    1
    52   129   130    1
    53   129   128   ar
    54    81    83   ar
    55   126   128   ar
    56   158   157    2
    57   159   156    1
    58    85    83   ar
    59    85    86    1
    60   166   167    1
    61   167   170    1
    62   119   120    1
    63   120   121    1
    64   148   147    2
    65   156   157    1
    66   156   155    1
    67   118   117    1
    68   121   122    2
    69   149   147   am
    70   147   146    1
    71   116   117   ar
    72   116   114   ar
    73   117   115   ar
    74   107   108    1
    75   170   171    1
    76   170   172    1
    77   146   145    1
    78   114   112   ar
    79   115   113   ar
    80   108   109    1
    81   108   111    1
    82   113   112   ar
    83   112   111    1
    84   144   143    2
    85   153   152    2
    86   109   110    2
    87    69    67    1
    88    11     9    1
    89   151   154    1
    90   151   152    1
    91   151   150    1
    92    47    45    1
    93   145   142    1
    94   143   150   am
    95   143   142    1
    96    48    46    1
    97   142   141    1
    98     9    10    1
    99     9     8    2
   100    67    66    1
   101    45    46    1
   102    45    42    1
   103    68    66    1
   104     7     8    1
   105     7     6    1
   106    25    24    2
   107    66    63    1
   108    30    31    1
   109    73    72    2
   110   141   133   am
   111    74    71    1
   112    61    59   ar
   113    41    42    1
   114    41    32   am
   115    42    43    1
   116    31    32    1
   117    31    34    1
   118    71    72    1
   119    71    70    1
   120   134   133    2
   121     6     5    1
   122    32    33    2
   123    24    23    1
   124   133   132    1
   125    60    59   ar
   126    59    58    1
   127    63    64    1
   128    63    62    1
   129    23    26    1
   130    23    22    1
   131    28    27    2
   132    39    38    1
   133    26    27    1
   134    35    34    1
   135    35    36    1
   136    40    38    1
   137    43    49   am
   138    43    44    2
   139     5     2    1
   140    64    65    2
   141    62    55   am
   142    27    29   am
   143    58    57    1
   144    38    37    2
   145    49    50    1
   146     1     2    1
   147   132   135    1
   148   132   131    1
   149    37    36    1
   150   135   136    1
   151     2     3    1
   152    55    54    1
   153    55    56    2
   154    50    51    1
   155    57    54    1
   156    54    53    1
   157    21    20   ar
   158    21    19   ar
   159    20    18   ar
   160     3     4    2
   161     3    12   am
   162    15    14    2
   163   136   137   ar
   164   136   138   ar
   165    51    52    2
   166    19    17   ar
   167    12    13    1
   168    18    17   ar
   169   137   139   ar
   170   138   140   ar
   171    14    13    1
   172    17    16    1
   173    13    16    1
   174   139   140   ar
