@<TRIPOS>MOLECULE
tmp/2axnA01.pdb
 177 171 0 0 0
SMALL
GASTEIGER

@<TRIPOS>ATOM
      1  N         -2.0370   46.0780    4.2890 N.3    39  PRO39      -0.2102
      2  CA        -3.4480   45.8710    3.9690 C.3    39  PRO39       0.1504
      3  C         -4.1890   45.1700    5.0970 C.2    39  PRO39       0.2575
      4  O         -3.5810   44.4700    5.9270 O.2    39  PRO39      -0.2718
      5  CB        -3.4240   45.0460    2.6720 C.3    39  PRO39       0.0282
      6  CG        -2.0010   44.8570    2.3070 C.3    39  PRO39       0.0208
      7  CD        -1.1410   45.7010    3.1810 C.3    39  PRO39       0.0893
      8  N         -5.5050   45.3760    5.1130 N.am   40  ALA40      -0.1980
      9  CA        -6.3800   44.8100    6.1170 C.3    40  ALA40       0.1597
     10  C         -6.0950   45.3970    7.4930 C.2    40  ALA40       0.2287
     11  O         -6.1620   44.6900    8.5050 O.2    40  ALA40      -0.2864
     12  CB        -6.2470   43.2790    6.1530 C.3    40  ALA40       0.0319
     13  N         -7.5420   50.9390    7.0480 N.3    43  LYS43      -0.1231
     14  CA        -7.3110   52.2380    6.4040 C.3    43  LYS43       0.1693
     15  C         -8.5270   52.7600    5.6320 C.2    43  LYS43       0.2592
     16  O         -8.8480   53.9480    5.6970 O.2    43  LYS43      -0.2718
     17  CB        -6.1220   52.1720    5.4390 C.3    43  LYS43       0.0285
     18  CG        -4.7770   51.8780    6.0780 C.3    43  LYS43       0.0035
     19  CD        -3.6580   51.9190    5.0210 C.3    43  LYS43       0.0206
     20  CE        -3.9320   50.9640    3.8430 C.3    43  LYS43       0.1093
     21  NZ        -3.8600   49.5280    4.2850 N.3    43  LYS43      -0.1314
     22  N         -9.2000   51.8730    4.9010 N.am   44  THR44      -0.1953
     23  CA       -10.3490   52.2650    4.1020 C.3    44  THR44       0.1897
     24  C        -11.5630   52.5190    4.9900 C.2    44  THR44       0.2313
     25  O        -12.3850   53.4020    4.7160 O.2    44  THR44      -0.2863
     26  CB       -10.6560   51.1770    3.0390 C.3    44  THR44       0.1794
     27  OG1       -9.5020   51.0100    2.2150 O.3    44  THR44      -0.2208
     28  CG2      -11.8220   51.5840    2.1340 C.3    44  THR44       0.0378
     29  N         -9.3970   56.5140   -2.9580 N.3    65  ASN65      -0.1225
     30  CA        -8.9630   55.1420   -2.7070 C.3    65  ASN65       0.1785
     31  C         -8.1660   54.6450   -3.9310 C.2    65  ASN65       0.2597
     32  O         -8.7430   54.3410   -4.9720 O.2    65  ASN65      -0.2718
     33  CB       -10.2240   54.3020   -2.4480 C.3    65  ASN65       0.1169
     34  CG        -9.9190   52.8540   -2.1160 C.2    65  ASN65       0.2627
     35  OD1      -10.8110   52.1040   -1.7050 O.2    65  ASN65      -0.2716
     36  ND2       -8.6690   52.4470   -2.3030 N.am   65  ASN65      -0.0877
     37  N         -6.8420   54.5900   -3.8100 N.am   66  VAL66      -0.1966
     38  CA        -6.0160   54.1710   -4.9380 C.3    66  VAL66       0.1727
     39  C         -6.4010   52.7820   -5.4390 C.2    66  VAL66       0.2616
     40  O         -6.2380   52.4630   -6.6210 O.2    66  VAL66      -0.2715
     41  CB        -4.5270   54.2470   -4.5770 C.3    66  VAL66       0.0290
     42  CG1       -3.6910   53.8770   -5.7720 C.3    66  VAL66       0.0023
     43  CG2       -4.1820   55.6860   -4.1800 C.3    66  VAL66       0.0023
     44  N         -6.9320   51.9560   -4.5450 N.am   67  GLY67      -0.1955
     45  CA        -7.3670   50.6400   -4.9640 C.3    67  GLY67       0.1869
     46  C         -8.4510   50.7330   -6.0300 C.2    67  GLY67       0.2309
     47  O         -8.4850   49.9240   -6.9660 O.2    67  GLY67      -0.2863
     48  N         -6.8630   51.4750   -9.2510 N.3    70  ARG70      -0.1231
     49  CA        -6.2250   50.2670   -9.7590 C.3    70  ARG70       0.1694
     50  C         -7.2580   49.3520  -10.4050 C.2    70  ARG70       0.2591
     51  O         -7.0720   48.9020  -11.5350 O.2    70  ARG70      -0.2718
     52  CB        -5.4890   49.5260   -8.6270 C.3    70  ARG70       0.0321
     53  CG        -4.6370   48.3450   -9.0790 C.3    70  ARG70       0.0489
     54  CD        -5.3670   47.0410   -8.8780 C.3    70  ARG70       0.2205
     55  NE        -5.6910   46.8490   -7.4720 N.pl3  70  ARG70      -0.0865
     56  CZ        -6.5850   45.9740   -7.0390 C.cat  70  ARG70       0.5346
     57  NH1       -7.2300   45.2100   -7.9160 N.pl3  70  ARG70       0.1354
     58  NH2       -6.8680   45.8840   -5.7420 N.pl3  70  ARG70       0.1354
     59  N         -8.3570   49.0990   -9.6980 N.am   71  ARG71      -0.1980
     60  CA        -9.4200   48.2360  -10.2110 C.3    71  ARG71       0.1597
     61  C        -10.0310   48.8040  -11.4810 C.2    71  ARG71       0.2287
     62  O        -10.6500   48.0940  -12.2680 O.2    71  ARG71      -0.2864
     63  CB       -10.5090   48.0370   -9.1560 C.3    71  ARG71       0.0334
     64  CG       -10.1600   46.9790   -8.1210 C.3    71  ARG71       0.0492
     65  CD       -11.3370   46.6510   -7.1940 C.3    71  ARG71       0.2205
     66  NE       -11.6120   47.7080   -6.2180 N.pl3  71  ARG71      -0.0865
     67  CZ       -10.8710   47.9670   -5.1370 C.cat  71  ARG71       0.5346
     68  NH1       -9.7910   47.2410   -4.8710 N.pl3  71  ARG71       0.1354
     69  NH2      -11.2050   48.9650   -4.3210 N.pl3  71  ARG71       0.1354
     70  N          0.0580   40.0340   -8.5810 N.3    82  PHE82      -0.1227
     71  CA        -0.0070   41.4120   -9.0430 C.3    82  PHE82       0.1736
     72  C          0.7560   42.3360   -8.0750 C.2    82  PHE82       0.2595
     73  O          1.3510   43.3210   -8.4920 O.2    82  PHE82      -0.2718
     74  CB        -1.4640   41.8830   -9.1400 C.3    82  PHE82       0.0547
     75  CG        -1.6080   43.3010   -9.6030 C.ar   82  PHE82      -0.0202
     76  CD1       -1.5000   43.6260  -10.9540 C.ar   82  PHE82      -0.0042
     77  CD2       -1.8070   44.3270   -8.6750 C.ar   82  PHE82      -0.0042
     78  CE1       -1.5910   44.9720  -11.3910 C.ar   82  PHE82      -0.0003
     79  CE2       -1.9010   45.6760   -9.0850 C.ar   82  PHE82      -0.0003
     80  CZ        -1.7920   46.0020  -10.4430 C.ar   82  PHE82      -0.0000
     81  N          0.7540   42.0050   -6.7900 N.am   83  PHE83      -0.1976
     82  CA         1.4230   42.8360   -5.7860 C.3    83  PHE83       0.1639
     83  C          2.8450   42.4690   -5.4070 C.2    83  PHE83       0.2290
     84  O          3.3600   42.9750   -4.4120 O.2    83  PHE83      -0.2864
     85  CB         0.5820   42.9020   -4.5010 C.3    83  PHE83       0.0560
     86  CG        -0.7560   43.5850   -4.6870 C.ar   83  PHE83      -0.0200
     87  CD1       -1.9040   42.8360   -4.9450 C.ar   83  PHE83      -0.0042
     88  CD2       -0.8500   44.9770   -4.6700 C.ar   83  PHE83      -0.0042
     89  CE1       -3.1270   43.4620   -5.1920 C.ar   83  PHE83      -0.0003
     90  CE2       -2.0700   45.6170   -4.9160 C.ar   83  PHE83      -0.0003
     91  CZ        -3.2090   44.8560   -5.1800 C.ar   83  PHE83      -0.0000
     92  N          0.7160   50.5840  -10.5240 N.3    94  ARG94      -0.1245
     93  CA         0.2600   51.0110   -9.2100 C.3    94  ARG94       0.1563
     94  C          0.7200   52.4390   -8.9370 C.2    94  ARG94       0.2260
     95  O         -0.0310   53.2430   -8.4050 O.2    94  ARG94      -0.2867
     96  CB         0.7830   50.0630   -8.1360 C.3    94  ARG94       0.0307
     97  CG         0.1390   48.6840   -8.2000 C.3    94  ARG94       0.0489
     98  CD         0.8790   47.6980   -7.3290 C.3    94  ARG94       0.2205
     99  NE         0.9250   48.1130   -5.9340 N.pl3  94  ARG94      -0.0865
    100  CZ         1.8220   47.6780   -5.0580 C.cat  94  ARG94       0.5346
    101  NH1        2.7630   46.8060   -5.4300 N.pl3  94  ARG94       0.1354
    102  NH2        1.7780   48.1000   -3.8040 N.pl3  94  ARG94       0.1354
    103  N         -6.1710   57.2650    0.4480 N.3   120  ASP120     -0.1225
    104  CA        -6.1790   55.9030    0.9730 C.3   120  ASP120      0.1805
    105  C         -5.3130   54.9180    0.1720 C.2   120  ASP120      0.2598
    106  O         -5.7210   54.4330   -0.8830 O.2   120  ASP120     -0.2718
    107  CB        -7.6340   55.4070    1.0230 C.3   120  ASP120      0.1424
    108  CG        -7.7640   53.9750    1.5320 C.2   120  ASP120      0.3668
    109  OD1       -6.8200   53.4560    2.1430 O.co2 120  ASP120     -0.2456
    110  OD2       -8.8320   53.3590    1.3370 O.co2 120  ASP120     -0.2456
    111  N         -4.1090   54.6520    0.6700 N.am  121  ALA121     -0.1966
    112  CA        -3.2000   53.6890    0.0460 C.3   121  ALA121      0.1728
    113  C         -2.2690   53.1930    1.1520 C.2   121  ALA121      0.2616
    114  O         -2.2340   53.7680    2.2520 O.2   121  ALA121     -0.2715
    115  CB        -2.3950   54.3430   -1.0780 C.3   121  ALA121      0.0334
    116  N         -1.5250   52.1240    0.8890 N.am  122  THR122     -0.1951
    117  CA        -0.6190   51.6160    1.9130 C.3   122  THR122      0.1897
    118  C          0.4500   52.6500    2.3080 C.2   122  THR122      0.2313
    119  O          0.7540   52.8120    3.4850 O.2   122  THR122     -0.2863
    120  CB         0.0420   50.2900    1.4530 C.3   122  THR122      0.1794
    121  OG1        0.6630   50.4690    0.1690 O.3   122  THR122     -0.2208
    122  CG2       -1.0150   49.1960    1.3230 C.3   122  THR122      0.0378
    123  N        -12.7690   41.8510    2.7700 N.3   164  LYS164     -0.1245
    124  CA       -11.9510   41.4510    1.6410 C.3   164  LYS164      0.1561
    125  C        -12.5190   40.3160    0.7850 C.2   164  LYS164      0.2260
    126  O        -12.5680   40.4360   -0.4310 O.2   164  LYS164     -0.2867
    127  CB       -10.5420   41.0920    2.1150 C.3   164  LYS164      0.0271
    128  CG        -9.8480   42.2020    2.9160 C.3   164  LYS164      0.0035
    129  CD        -9.6220   43.4650    2.0920 C.3   164  LYS164      0.0206
    130  CE        -9.0520   44.5890    2.9760 C.3   164  LYS164      0.1093
    131  NZ        -8.9810   45.9020    2.2690 N.3   164  LYS164     -0.1314
    132  N         -5.1030   36.6990    0.0810 N.3   182  PHE182     -0.1241
    133  CA        -4.8980   37.9770    0.7370 C.3   182  PHE182      0.1605
    134  C         -3.7130   37.9550    1.7080 C.2   182  PHE182      0.2264
    135  O         -2.9720   38.9370    1.7930 O.2   182  PHE182     -0.2867
    136  CB        -6.1760   38.4630    1.4550 C.3   182  PHE182      0.0534
    137  CG        -6.2390   39.9670    1.5880 C.ar  182  PHE182     -0.0203
    138  CD1       -6.7890   40.7460    0.5690 C.ar  182  PHE182     -0.0042
    139  CD2       -5.6630   40.6110    2.6910 C.ar  182  PHE182     -0.0042
    140  CE1       -6.7610   42.1550    0.6400 C.ar  182  PHE182     -0.0003
    141  CE2       -5.6300   42.0130    2.7700 C.ar  182  PHE182     -0.0003
    142  CZ        -6.1820   42.7840    1.7360 C.ar  182  PHE182     -0.0000
    143  N         -0.6630   38.2730   -0.1590 N.3   185  ARG185     -0.1245
    144  CA        -0.6570   39.6480   -0.6280 C.3   185  ARG185      0.1563
    145  C         -0.0690   40.5510    0.4550 C.2   185  ARG185      0.2260
    146  O          0.7970   41.3780    0.1840 O.2   185  ARG185     -0.2867
    147  CB        -2.0920   40.0480   -0.9570 C.3   185  ARG185      0.0307
    148  CG        -2.2950   41.4200   -1.5620 C.3   185  ARG185      0.0489
    149  CD        -3.7010   41.4380   -2.1370 C.3   185  ARG185      0.2205
    150  NE        -4.2660   42.7720   -2.2020 N.pl3 185  ARG185     -0.0865
    151  CZ        -5.4670   43.0400   -2.6980 C.cat 185  ARG185      0.5346
    152  NH1       -6.2330   42.0620   -3.1770 N.pl3 185  ARG185      0.1354
    153  NH2       -5.8890   44.2920   -2.7210 N.pl3 185  ARG185      0.1354
    154  N          4.1610   43.1870    1.1550 N.3   189  TYR189     -0.1241
    155  CA         4.5020   44.5180    1.6450 C.3   189  TYR189      0.1605
    156  C          5.3970   44.5300    2.8480 C.2   189  TYR189      0.2264
    157  O          5.9630   45.5700    3.1960 O.2   189  TYR189     -0.2867
    158  CB         3.2490   45.2770    2.0700 C.3   189  TYR189      0.0534
    159  CG         2.2660   45.5930    0.9820 C.ar  189  TYR189     -0.0201
    160  CD1        1.3810   44.6260    0.5190 C.ar  189  TYR189     -0.0009
    161  CD2        2.1870   46.8800    0.4460 C.ar  189  TYR189     -0.0009
    162  CE1        0.4320   44.9290   -0.4450 C.ar  189  TYR189      0.0417
    163  CE2        1.2410   47.1940   -0.5270 C.ar  189  TYR189      0.0417
    164  CZ         0.3680   46.2170   -0.9610 C.ar  189  TYR189      0.1957
    165  OH        -0.5770   46.5210   -1.9020 O.3   189  TYR189     -0.2866
    166  N        -18.2180   48.5630    5.6600 N.3   420  TYR420     -0.1241
    167  CA       -17.7210   49.9340    5.7930 C.3   420  TYR420      0.1605
    168  C        -18.7830   50.9420    6.2360 C.2   420  TYR420      0.2264
    169  O        -18.5270   52.1490    6.2420 O.2   420  TYR420     -0.2867
    170  CB       -17.1430   50.4080    4.4540 C.3   420  TYR420      0.0534
    171  CG       -15.8930   49.6860    4.0160 C.ar  420  TYR420     -0.0201
    172  CD1      -15.8450   49.0220    2.7970 C.ar  420  TYR420     -0.0009
    173  CD2      -14.7500   49.6930    4.8100 C.ar  420  TYR420     -0.0009
    174  CE1      -14.6800   48.3770    2.3690 C.ar  420  TYR420      0.0417
    175  CE2      -13.5850   49.0640    4.4030 C.ar  420  TYR420      0.0417
    176  CZ       -13.5540   48.4070    3.1770 C.ar  420  TYR420      0.1957
    177  OH       -12.3920   47.8150    2.7580 O.3   420  TYR420     -0.2866
@<TRIPOS>BOND
     1    62    61    2
     2    51    50    2
     3    61    60    1
     4    78    76   ar
     5    78    80   ar
     6    76    75   ar
     7    92    93    1
     8    80    79   ar
     9    50    49    1
    10    50    59   am
    11    60    59    1
    12    60    63    1
    13    49    48    1
    14    49    52    1
    15    75    74    1
    16    75    77   ar
    17    93    94    1
    18    93    96    1
    19    63    64    1
    20    74    71    1
    21    79    77   ar
    22    53    54    1
    23    53    52    1
    24    71    70    1
    25    71    72    1
    26    94    95    2
    27    54    55    1
    28    73    72    2
    29    97    96    1
    30    97    98    1
    31    64    65    1
    32    72    81   am
    33    57    56    1
    34    55    56    2
    35    98    99    1
    36    65    66    1
    37    56    58    1
    38    47    46    2
    39    81    82    1
    40    40    39    2
    41    66    67    2
    42    46    45    1
    43    99   100    2
    44    82    83    1
    45    82    85    1
    46    42    41    1
    47    39    38    1
    48    39    44   am
    49   101   100    1
    50    83    84    2
    51    89    91   ar
    52    89    87   ar
    53    91    90   ar
    54    67    68    1
    55    67    69    1
    56   100   102    1
    57    32    31    2
    58    45    44    1
    59    87    86   ar
    60    38    41    1
    61    38    37    1
    62    90    88   ar
    63    86    88   ar
    64    86    85    1
    65    41    43    1
    66    31    37   am
    67    31    30    1
    68   152   151    1
    69    29    30    1
    70   153   151    1
    71    30    33    1
    72   151   150    2
    73    33    34    1
    74    36    34   am
    75   150   149    1
    76   149   148    1
    77    34    35    2
    78   165   164    1
    79   148   147    1
    80   115   112    1
    81   164   163   ar
    82   164   162   ar
    83   147   144    1
    84   106   105    2
    85   144   143    1
    86   144   145    1
    87   163   161   ar
    88   162   160   ar
    89   126   125    2
    90   112   111    1
    91   112   113    1
    92   132   133    1
    93   121   120    1
    94   105   111   am
    95   105   104    1
    96   146   145    2
    97   161   159   ar
    98   103   104    1
    99   160   159   ar
   100   138   140   ar
   101   138   137   ar
   102   140   142   ar
   103   133   136    1
   104   133   134    1
   105   125   124    1
   106   116   113   am
   107   116   117    1
   108   104   107    1
   109   159   158    1
   110   107   108    1
   111   113   114    2
   112   154   155    1
   113   122   120    1
   114   110   108   ar
   115   120   117    1
   116   136   137    1
   117   108   109   ar
   118   137   139   ar
   119   124   127    1
   120   124   123    1
   121   155   158    1
   122   155   156    1
   123   134   135    2
   124   142   141   ar
   125   117   118    1
   126   129   128    1
   127   129   130    1
   128   127   128    1
   129    28    26    1
   130    27    26    1
   131   131   130    1
   132     6     5    1
   133     6     7    1
   134   118   119    2
   135   174   172   ar
   136   174   176   ar
   137     5     2    1
   138   139   141   ar
   139   177   176    1
   140   172   171   ar
   141   156   157    2
   142    26    23    1
   143   176   175   ar
   144     7     1    1
   145    20    21    1
   146    20    19    1
   147     2     1    1
   148     2     3    1
   149   171   170    1
   150   171   173   ar
   151    23    22    1
   152    23    24    1
   153   175   173   ar
   154   170   167    1
   155    25    24    2
   156    22    15   am
   157    19    18    1
   158     3     8   am
   159     3     4    2
   160     8     9    1
   161    17    18    1
   162    17    14    1
   163    15    16    2
   164    15    14    1
   165   166   167    1
   166   167   168    1
   167     9    12    1
   168     9    10    1
   169   168   169    2
   170    14    13    1
   171    10    11    2
