@<TRIPOS>MOLECULE
tmp/2axnA02.pdb
 171 163 0 0 0
SMALL
GASTEIGER

@<TRIPOS>ATOM
      1  N         -2.0370   46.0780    4.2890 N.3    39  PRO39      -0.2102
      2  CA        -3.4480   45.8710    3.9690 C.3    39  PRO39       0.1504
      3  C         -4.1890   45.1700    5.0970 C.2    39  PRO39       0.2576
      4  O         -3.5810   44.4700    5.9270 O.2    39  PRO39      -0.2718
      5  CB        -3.4240   45.0460    2.6720 C.3    39  PRO39       0.0282
      6  CG        -2.0010   44.8570    2.3070 C.3    39  PRO39       0.0208
      7  CD        -1.1410   45.7010    3.1810 C.3    39  PRO39       0.0893
      8  N         -5.5050   45.3760    5.1130 N.am   40  ALA40      -0.1966
      9  CA        -6.3800   44.8100    6.1170 C.3    40  ALA40       0.1728
     10  C         -6.0950   45.3970    7.4930 C.2    40  ALA40       0.2616
     11  O         -6.1620   44.6900    8.5050 O.2    40  ALA40      -0.2715
     12  CB        -6.2470   43.2790    6.1530 C.3    40  ALA40       0.0334
     13  N         -5.7660   46.6840    7.5320 N.am   41  ARG41      -0.1963
     14  CA        -5.5120   47.3510    8.8070 C.3    41  ARG41       0.1729
     15  C         -6.5660   48.4280    9.1210 C.2    41  ARG41       0.2617
     16  O         -6.3940   49.2180   10.0440 O.2    41  ARG41      -0.2715
     17  CB        -4.1000   47.9660    8.8260 C.3    41  ARG41       0.0348
     18  CG        -3.0500   47.1240    9.5700 C.3    41  ARG41       0.0492
     19  CD        -2.7690   45.8040    8.8580 C.3    41  ARG41       0.2205
     20  NE        -1.7380   44.9940    9.5200 N.pl3  41  ARG41      -0.0865
     21  CZ        -1.4520   43.7340    9.1740 C.cat  41  ARG41       0.5346
     22  NH1       -2.1080   43.1460    8.1750 N.pl3  41  ARG41       0.1354
     23  NH2       -0.5480   43.0400    9.8590 N.pl3  41  ARG41       0.1354
     24  N         -7.6530   48.4570    8.3530 N.am   42  GLY42      -0.1940
     25  CA        -8.7030   49.4320    8.5960 C.3    42  GLY42       0.2014
     26  C         -8.5190   50.8040    7.9370 C.2    42  GLY42       0.2639
     27  O         -9.2740   51.7430    8.2270 O.2    42  GLY42      -0.2714
     28  N         -7.5420   50.9390    7.0480 N.am   43  LYS43      -0.1963
     29  CA        -7.3110   52.2380    6.4040 C.3    43  LYS43       0.1728
     30  C         -8.5270   52.7600    5.6320 C.2    43  LYS43       0.2617
     31  O         -8.8480   53.9480    5.6970 O.2    43  LYS43      -0.2715
     32  CB        -6.1220   52.1720    5.4390 C.3    43  LYS43       0.0311
     33  CG        -4.7770   51.8780    6.0780 C.3    43  LYS43       0.0038
     34  CD        -3.6580   51.9190    5.0210 C.3    43  LYS43       0.0206
     35  CE        -3.9320   50.9640    3.8430 C.3    43  LYS43       0.1093
     36  NZ        -3.8600   49.5280    4.2850 N.3    43  LYS43      -0.1314
     37  N         -9.2000   51.8730    4.9010 N.am   44  THR44      -0.1937
     38  CA       -10.3490   52.2650    4.1020 C.3    44  THR44       0.2028
     39  C        -11.5630   52.5190    4.9900 C.2    44  THR44       0.2642
     40  O        -12.3850   53.4020    4.7160 O.2    44  THR44      -0.2714
     41  CB       -10.6560   51.1770    3.0390 C.3    44  THR44       0.1808
     42  OG1       -9.5020   51.0100    2.2150 O.3    44  THR44      -0.2208
     43  CG2      -11.8220   51.5840    2.1340 C.3    44  THR44       0.0379
     44  N        -11.6590   51.7380    6.0550 N.am   45  TYR45      -0.1959
     45  CA       -12.7480   51.8510    7.0170 C.3    45  TYR45       0.1771
     46  C        -12.6140   53.2370    7.6770 C.2    45  TYR45       0.2619
     47  O        -13.5740   54.0040    7.7660 O.2    45  TYR45      -0.2715
     48  CB       -12.6070   50.7390    8.0590 C.3    45  TYR45       0.0574
     49  CG       -13.5910   50.8120    9.1920 C.ar   45  TYR45      -0.0198
     50  CD1      -14.7790   50.0670    9.1660 C.ar   45  TYR45      -0.0009
     51  CD2      -13.3210   51.5940   10.3230 C.ar   45  TYR45      -0.0009
     52  CE1      -15.6650   50.0920   10.2400 C.ar   45  TYR45       0.0417
     53  CE2      -14.1970   51.6280   11.3980 C.ar   45  TYR45       0.0417
     54  CZ       -15.3680   50.8680   11.3450 C.ar   45  TYR45       0.1957
     55  OH       -16.2270   50.8570   12.4200 O.3    45  TYR45      -0.2866
     56  N        -11.4070   53.5420    8.1340 N.am   46  ILE46      -0.1977
     57  CA       -11.1460   54.8270    8.7560 C.3    46  ILE46       0.1596
     58  C        -11.3690   55.9680    7.7540 C.2    46  ILE46       0.2287
     59  O        -11.9690   56.9840    8.1030 O.2    46  ILE46      -0.2864
     60  CB        -9.7050   54.9050    9.2750 C.3    46  ILE46       0.0276
     61  CG1       -9.5050   53.8730   10.3850 C.3    46  ILE46       0.0022
     62  CG2       -9.3970   56.3200    9.7590 C.3    46  ILE46       0.0022
     63  CD1       -8.0380   53.6810   10.7660 C.3    46  ILE46       0.0001
     64  N         -6.1710   57.2650    0.4480 N.3   120  ASP120     -0.1239
     65  CA        -6.1790   55.9030    0.9730 C.3   120  ASP120      0.1674
     66  C         -5.3130   54.9180    0.1720 C.2   120  ASP120      0.2266
     67  O         -5.7210   54.4330   -0.8830 O.2   120  ASP120     -0.2867
     68  CB        -7.6340   55.4070    1.0230 C.3   120  ASP120      0.1410
     69  CG        -7.7640   53.9750    1.5320 C.2   120  ASP120      0.3668
     70  OD1       -6.8200   53.4560    2.1430 O.co2 120  ASP120     -0.2456
     71  OD2       -8.8320   53.3590    1.3370 O.co2 120  ASP120     -0.2456
     72  N         -2.3340   53.0200   10.6910 N.3   148  SER148     -0.1202
     73  CA        -2.9750   52.0340   11.5400 C.3   148  SER148      0.2020
     74  C         -2.0260   50.8400   11.6490 C.2   148  SER148      0.2619
     75  O         -1.6270   50.2620   10.6370 O.2   148  SER148     -0.2717
     76  CB        -4.3000   51.5640   10.9660 C.3   148  SER148      0.2103
     77  OG        -4.7190   50.4260   11.7020 O.3   148  SER148     -0.2182
     78  N         -1.6670   50.4820   12.8730 N.am  149  VAL149     -0.1965
     79  CA        -0.7750   49.3640   13.1110 C.3   149  VAL149      0.1727
     80  C         -1.5400   48.2840   13.8500 C.2   149  VAL149      0.2616
     81  O         -2.1670   48.5560   14.8670 O.2   149  VAL149     -0.2715
     82  CB         0.4040   49.7900   13.9730 C.3   149  VAL149      0.0290
     83  CG1        1.3050   48.5850   14.2530 C.3   149  VAL149      0.0023
     84  CG2        1.1610   50.9080   13.2760 C.3   149  VAL149      0.0023
     85  N         -1.4970   47.0630   13.3350 N.am  150  CYS150     -0.1968
     86  CA        -2.1960   45.9480   13.9730 C.3   150  CYS150      0.1712
     87  C         -1.4440   44.6390   13.8070 C.2   150  CYS150      0.2296
     88  O         -1.3400   44.1090   12.7110 O.2   150  CYS150     -0.2864
     89  CB        -3.5920   45.7740   13.3880 C.3   150  CYS150      0.0983
     90  SG        -4.4710   44.3720   14.1180 S.3   150  CYS150     -0.0798
     91  N         -7.3990   39.7870   14.4960 N.3   155  VAL155     -0.1245
     92  CA        -8.0140   40.9950   13.9440 C.3   155  VAL155      0.1561
     93  C         -7.8680   41.0420   12.4330 C.2   155  VAL155      0.2260
     94  O         -8.8150   41.3740   11.7130 O.2   155  VAL155     -0.2867
     95  CB        -7.3710   42.2800   14.5280 C.3   155  VAL155      0.0252
     96  CG1       -7.9340   43.5120   13.8220 C.3   155  VAL155      0.0019
     97  CG2       -7.6370   42.3590   16.0300 C.3   155  VAL155      0.0019
     98  N        -10.7690   41.0120    9.7560 N.3   159  ASN159     -0.1240
     99  CA       -10.9160   42.0810    8.7630 C.3   159  ASN159      0.1653
    100  C        -11.0300   41.5010    7.3520 C.2   159  ASN159      0.2266
    101  O        -11.8020   41.9940    6.5180 O.2   159  ASN159     -0.2867
    102  CB        -9.7140   43.0450    8.7750 C.3   159  ASN159      0.1155
    103  CG        -9.5760   43.8210   10.0860 C.2   159  ASN159      0.2627
    104  OD1       -8.5960   44.5630   10.2800 O.2   159  ASN159     -0.2716
    105  ND2      -10.5410   43.6580   10.9840 N.am  159  ASN159     -0.0877
    106  N        -14.5020   40.0810    6.8170 N.3   162  GLU162     -0.1231
    107  CA       -15.5560   41.0820    6.7620 C.3   162  GLU162      0.1699
    108  C        -15.6430   41.9610    5.5230 C.2   162  GLU162      0.2592
    109  O        -16.7460   42.3290    5.1050 O.2   162  GLU162     -0.2718
    110  CB       -15.4780   41.9750    8.0030 C.3   162  GLU162      0.0402
    111  CG       -16.6120   42.9950    8.1040 C.3   162  GLU162      0.1161
    112  CD       -16.4950   43.8780    9.3430 C.2   162  GLU162      0.3649
    113  OE1      -16.2630   43.3170   10.4440 O.co2 162  GLU162     -0.2457
    114  OE2      -16.6360   45.1250    9.2180 O.co2 162  GLU162     -0.2457
    115  N        -14.5060   42.3190    4.9260 N.am  163  VAL163     -0.1966
    116  CA       -14.5470   43.1860    3.7450 C.3   163  VAL163      0.1727
    117  C        -13.7200   42.7470    2.5650 C.2   163  VAL163      0.2616
    118  O        -13.9220   43.2380    1.4630 O.2   163  VAL163     -0.2715
    119  CB       -14.0910   44.6450    4.0560 C.3   163  VAL163      0.0290
    120  CG1      -15.0030   45.2700    5.0770 C.3   163  VAL163      0.0023
    121  CG2      -12.6280   44.6530    4.5320 C.3   163  VAL163      0.0023
    122  N        -12.7690   41.8510    2.7700 N.am  164  LYS164     -0.1977
    123  CA       -11.9510   41.4510    1.6410 C.3   164  LYS164      0.1596
    124  C        -12.5190   40.3160    0.7850 C.2   164  LYS164      0.2287
    125  O        -12.5680   40.4360   -0.4310 O.2   164  LYS164     -0.2864
    126  CB       -10.5420   41.0920    2.1150 C.3   164  LYS164      0.0298
    127  CG        -9.8480   42.2020    2.9160 C.3   164  LYS164      0.0038
    128  CD        -9.6220   43.4650    2.0920 C.3   164  LYS164      0.0206
    129  CE        -9.0520   44.5890    2.9760 C.3   164  LYS164      0.1093
    130  NZ        -8.9810   45.9020    2.2690 N.3   164  LYS164     -0.1314
    131  N         -2.4400   54.8430   15.0840 N.3   210  VAL210     -0.1245
    132  CA        -3.4800   54.0920   15.7850 C.3   210  VAL210      0.1561
    133  C         -2.9740   52.6570   15.9810 C.2   210  VAL210      0.2260
    134  O         -2.6790   51.9500   15.0110 O.2   210  VAL210     -0.2867
    135  CB        -4.7750   54.0770   14.9650 C.3   210  VAL210      0.0252
    136  CG1       -5.8720   53.3340   15.7220 C.3   210  VAL210      0.0019
    137  CG2       -5.1940   55.5130   14.6490 C.3   210  VAL210      0.0019
    138  N         -6.0490   48.4440   17.3430 N.3   213  VAL213     -0.1245
    139  CA        -7.4220   48.8620   17.1110 C.3   213  VAL213      0.1561
    140  C         -7.9160   49.9770   18.0540 C.2   213  VAL213      0.2260
    141  O         -9.0450   49.9300   18.5220 O.2   213  VAL213     -0.2867
    142  CB        -8.3830   47.6440   17.2230 C.3   213  VAL213      0.0252
    143  CG1       -9.6650   47.9150   16.4630 C.3   213  VAL213      0.0019
    144  CG2       -7.7120   46.3920   16.6730 C.3   213  VAL213      0.0019
    145  N        -13.7090   56.3150   18.4880 N.3   237  ILE237     -0.1245
    146  CA       -14.5320   55.3440   17.7820 C.3   237  ILE237      0.1561
    147  C        -13.9340   53.9720   18.0900 C.2   237  ILE237      0.2260
    148  O        -12.7590   53.8690   18.4470 O.2   237  ILE237     -0.2867
    149  CB       -14.5360   55.5700   16.2330 C.3   237  ILE237      0.0252
    150  CG1      -13.1070   55.5580   15.6780 C.3   237  ILE237      0.0019
    151  CG2      -15.2450   56.8700   15.8920 C.3   237  ILE237      0.0019
    152  CD1      -13.0590   55.5820   14.1400 C.3   237  ILE237      0.0001
    153  N        -14.4430   49.4340   17.1080 N.3   239  VAL239     -0.1245
    154  CA       -15.0120   48.5400   16.1050 C.3   239  VAL239      0.1561
    155  C        -15.9360   47.4520   16.6130 C.2   239  VAL239      0.2260
    156  O        -16.6080   46.8150   15.8260 O.2   239  VAL239     -0.2867
    157  CB       -13.8910   47.8890   15.2440 C.3   239  VAL239      0.0252
    158  CG1      -13.0290   48.9720   14.6200 C.3   239  VAL239      0.0019
    159  CG2      -13.0270   46.9870   16.0910 C.3   239  VAL239      0.0019
    160  N        -18.2180   48.5630    5.6600 N.3   420  TYR420     -0.1241
    161  CA       -17.7210   49.9340    5.7930 C.3   420  TYR420      0.1605
    162  C        -18.7830   50.9420    6.2360 C.2   420  TYR420      0.2264
    163  O        -18.5270   52.1490    6.2420 O.2   420  TYR420     -0.2867
    164  CB       -17.1430   50.4080    4.4540 C.3   420  TYR420      0.0534
    165  CG       -15.8930   49.6860    4.0160 C.ar  420  TYR420     -0.0201
    166  CD1      -15.8450   49.0220    2.7970 C.ar  420  TYR420     -0.0009
    167  CD2      -14.7500   49.6930    4.8100 C.ar  420  TYR420     -0.0009
    168  CE1      -14.6800   48.3770    2.3690 C.ar  420  TYR420      0.0417
    169  CE2      -13.5850   49.0640    4.4030 C.ar  420  TYR420      0.0417
    170  CZ       -13.5540   48.4070    3.1770 C.ar  420  TYR420      0.1957
    171  OH       -12.3920   47.8150    2.7580 O.3   420  TYR420     -0.2866
@<TRIPOS>BOND
     1    67    66    2
     2   125   124    2
     3    66    65    1
     4    64    65    1
     5   124   123    1
     6    65    68    1
     7    68    69    1
     8    71    69   ar
     9   118   117    2
    10    69    70   ar
    11   123   126    1
    12   123   122    1
    13   128   127    1
    14   128   129    1
    15   126   127    1
    16    43    41    1
    17    42    41    1
    18   130   129    1
    19     6     5    1
    20     6     7    1
    21   168   166   ar
    22   168   170   ar
    23   117   122   am
    24   117   116    1
    25     5     2    1
    26   171   170    1
    27   166   165   ar
    28    41    38    1
    29   170   169   ar
    30     7     1    1
    31   116   119    1
    32   116   115    1
    33    35    36    1
    34    35    34    1
    35     2     1    1
    36     2     3    1
    37   165   164    1
    38   165   167   ar
    39   119   121    1
    40   119   120    1
    41    38    37    1
    42    38    39    1
    43   169   167   ar
    44   164   161    1
    45    40    39    2
    46    37    30   am
    47   115   108   am
    48    39    44   am
    49    34    33    1
    50     3     8   am
    51     3     4    2
    52   109   108    2
    53     8     9    1
    54    32    33    1
    55    32    29    1
    56   108   107    1
    57    30    31    2
    58    30    29    1
    59   160   161    1
    60   161   162    1
    61    44    45    1
    62     9    12    1
    63     9    10    1
    64   162   163    2
    65    29    28    1
    66   101   100    2
    67   107   106    1
    68   107   110    1
    69    45    46    1
    70    45    48    1
    71    28    26   am
    72   100    99    1
    73    10    13   am
    74    10    11    2
    75    13    14    1
    76    46    47    2
    77    46    56   am
    78    58    59    2
    79    58    57    1
    80    26    27    2
    81    26    25    1
    82   110   111    1
    83    48    49    1
    84   111   112    1
    85    56    57    1
    86    22    21    1
    87    24    25    1
    88    24    15   am
    89    57    60    1
    90    99   102    1
    91    99    98    1
    92   102   103    1
    93    14    17    1
    94    14    15    1
    95    17    18    1
    96    19    20    1
    97    19    18    1
    98    15    16    2
    99    50    49   ar
   100    50    52   ar
   101    21    20    2
   102    21    23    1
   103    49    51   ar
   104   114   112   ar
   105    60    62    1
   106    60    61    1
   107   112   113   ar
   108   103   104    2
   109   103   105   am
   110    52    54   ar
   111    51    53   ar
   112    61    63    1
   113    75    74    2
   114    72    73    1
   115    76    73    1
   116    76    77    1
   117    54    53   ar
   118    54    55    1
   119    73    74    1
   120    74    78   am
   121    94    93    2
   122    93    92    1
   123    88    87    2
   124    78    79    1
   125    79    80    1
   126    79    82    1
   127    84    82    1
   128    85    80   am
   129    85    86    1
   130    89    86    1
   131    89    90    1
   132    87    86    1
   133    96    95    1
   134    80    81    2
   135    92    91    1
   136    92    95    1
   137    82    83    1
   138   152   150    1
   139    95    97    1
   140   158   157    1
   141   137   135    1
   142   135   136    1
   143   135   132    1
   144   134   133    2
   145   131   132    1
   146   157   159    1
   147   157   154    1
   148   150   149    1
   149   132   133    1
   150   156   155    2
   151   151   149    1
   152   154   155    1
   153   154   153    1
   154   149   146    1
   155   143   142    1
   156   144   142    1
   157   139   142    1
   158   139   138    1
   159   139   140    1
   160   146   147    1
   161   146   145    1
   162   140   141    2
   163   147   148    2
