@<TRIPOS>MOLECULE
tmp/2axrA02.pdb
 152 146 0 0 0
SMALL
GASTEIGER

@<TRIPOS>ATOM
      1  N        -17.3600   31.4290   20.0630 N.3    33  PHE33      -0.1241
      2  CA       -16.5240   32.5590   20.4480 C.3    33  PHE33       0.1605
      3  C        -16.5670   33.6020   19.3320 C.2    33  PHE33       0.2264
      4  O        -16.7750   34.7840   19.5950 O.2    33  PHE33      -0.2867
      5  CB       -15.0790   32.0950   20.6670 C.3    33  PHE33       0.0534
      6  CG       -14.0920   33.2200   20.7960 C.ar   33  PHE33      -0.0203
      7  CD1      -14.1380   34.0850   21.8830 C.ar   33  PHE33      -0.0042
      8  CD2      -13.1160   33.4200   19.8230 C.ar   33  PHE33      -0.0042
      9  CE1      -13.2280   35.1360   21.9980 C.ar   33  PHE33      -0.0003
     10  CE2      -12.2040   34.4670   19.9320 C.ar   33  PHE33      -0.0003
     11  CZ       -12.2620   35.3260   21.0220 C.ar   33  PHE33      -0.0000
     12  N        -12.1450   27.9760   21.4000 N.3    74  HIS74      -0.1241
     13  CA       -11.4460   29.1030   20.8010 C.3    74  HIS74       0.1621
     14  C        -11.0670   28.9500   19.3370 C.2    74  HIS74       0.2264
     15  O        -10.4180   29.8210   18.7630 O.2    74  HIS74      -0.2867
     16  CB       -10.2290   29.4940   21.6610 C.3    74  HIS74       0.0745
     17  CG       -10.4770   30.7160   22.4920 C.ar   74  HIS74       0.0817
     18  ND1      -10.3170   31.9640   21.9500 N.ar   74  HIS74      -0.2268
     19  CD2      -11.0740   30.8500   23.7020 C.ar   74  HIS74       0.1154
     20  CE1      -10.8650   32.8460   22.8340 C.ar   74  HIS74       0.1986
     21  NE2      -11.3180   32.1920   23.8870 N.ar   74  HIS74      -0.2212
     22  N        -11.0630   29.2710   15.5360 N.3    76  TYR76      -0.1241
     23  CA       -11.5300   30.3960   14.7270 C.3    76  TYR76       0.1605
     24  C        -12.6600   30.0330   13.7670 C.2    76  TYR76       0.2264
     25  O        -13.3250   30.9150   13.2110 O.2    76  TYR76      -0.2867
     26  CB       -10.3690   31.0060   13.9370 C.3    76  TYR76       0.0534
     27  CG        -9.2790   31.6180   14.7950 C.ar   76  TYR76      -0.0201
     28  CD1       -9.4780   31.8490   16.1610 C.ar   76  TYR76      -0.0009
     29  CD2       -8.0440   31.9660   14.2410 C.ar   76  TYR76      -0.0009
     30  CE1       -8.4750   32.4050   16.9510 C.ar   76  TYR76       0.0417
     31  CE2       -7.0360   32.5270   15.0250 C.ar   76  TYR76       0.0417
     32  CZ        -7.2580   32.7390   16.3800 C.ar   76  TYR76       0.1957
     33  OH        -6.2520   33.2630   17.1690 O.3    76  TYR76      -0.2866
     34  N         -0.5100   31.9870   24.5760 N.3   133  THR133     -0.1203
     35  CA        -0.6770   33.1100   25.4940 C.3   133  THR133      0.1994
     36  C         -2.0660   33.2590   26.1090 C.2   133  THR133      0.2618
     37  O         -2.1880   33.7540   27.2330 O.2   133  THR133     -0.2717
     38  CB        -0.3630   34.4380   24.7770 C.3   133  THR133      0.1784
     39  OG1       -1.2480   34.5840   23.6580 O.3   133  THR133     -0.2211
     40  CG2        1.0680   34.4600   24.2770 C.3   133  THR133      0.0376
     41  N         -3.1020   32.8370   25.3810 N.am  134  CYS134     -0.1969
     42  CA        -4.4850   32.9840   25.8480 C.3   134  CYS134      0.1712
     43  C         -4.9350   32.0120   26.9280 C.2   134  CYS134      0.2296
     44  O         -5.0220   30.8110   26.7010 O.2   134  CYS134     -0.2864
     45  CB        -5.4510   32.8830   24.6690 C.3   134  CYS134      0.0983
     46  SG        -5.0020   33.9460   23.2660 S.3   134  CYS134     -0.0798
     47  N          8.2420   37.5210   17.8710 N.3   249  ARG249     -0.1245
     48  CA         7.1910   37.6360   16.8840 C.3   249  ARG249      0.1563
     49  C          7.0940   39.1190   16.6190 C.2   249  ARG249      0.2260
     50  O          7.3930   39.9380   17.4950 O.2   249  ARG249     -0.2867
     51  CB         5.8540   37.1050   17.4100 C.3   249  ARG249      0.0307
     52  CG         5.1370   37.9860   18.4270 C.3   249  ARG249      0.0489
     53  CD         3.8190   37.3290   18.8200 C.3   249  ARG249      0.2205
     54  NE         3.0810   38.0620   19.8480 N.pl3 249  ARG249     -0.0865
     55  CZ         2.0550   37.5500   20.5190 C.cat 249  ARG249      0.5346
     56  NH1        1.6600   36.3050   20.2680 N.pl3 249  ARG249      0.1354
     57  NH2        1.4210   38.2740   21.4340 N.pl3 249  ARG249      0.1354
     58  N          4.7730   42.2890   15.8950 N.3   251  GLU251     -0.1245
     59  CA         3.3990   42.7510   16.0010 C.3   251  GLU251      0.1567
     60  C          3.2980   43.7350   14.8470 C.2   251  GLU251      0.2260
     61  O          4.0650   44.6970   14.7780 O.2   251  GLU251     -0.2867
     62  CB         3.1510   43.4950   17.3140 C.3   251  GLU251      0.0388
     63  CG         1.7270   44.0210   17.4220 C.3   251  GLU251      0.1160
     64  CD         1.5110   44.9380   18.6070 C.2   251  GLU251      0.3649
     65  OE1        0.3520   45.3550   18.8250 O.co2 251  GLU251     -0.2457
     66  OE2        2.4930   45.2450   19.3160 O.co2 251  GLU251     -0.2457
     67  N          8.6210   41.4630   19.8370 N.3   260  GLU260     -0.1245
     68  CA         8.3520   41.1080   21.2310 C.3   260  GLU260      0.1567
     69  C          8.5340   39.6200   21.4410 C.2   260  GLU260      0.2260
     70  O          8.4320   38.8300   20.5000 O.2   260  GLU260     -0.2867
     71  CB         6.9340   41.5200   21.6590 C.3   260  GLU260      0.0388
     72  CG         5.8080   40.9690   20.7920 C.3   260  GLU260      0.1160
     73  CD         4.4310   41.2200   21.3990 C.2   260  GLU260      0.3649
     74  OE1        4.2540   42.2590   22.0740 O.co2 260  GLU260     -0.2457
     75  OE2        3.5230   40.3860   21.1920 O.co2 260  GLU260     -0.2457
     76  N         -3.8920   40.1840   27.5930 N.3   304  TYR304     -0.1241
     77  CA        -4.6790   41.1410   26.8290 C.3   304  TYR304      0.1605
     78  C         -6.0780   41.3430   27.4110 C.2   304  TYR304      0.2264
     79  O         -7.0740   41.3430   26.6870 O.2   304  TYR304     -0.2867
     80  CB        -4.7560   40.6960   25.3640 C.3   304  TYR304      0.0534
     81  CG        -3.3900   40.6090   24.7170 C.ar  304  TYR304     -0.0201
     82  CD1       -2.6420   41.7610   24.4760 C.ar  304  TYR304     -0.0009
     83  CD2       -2.8120   39.3700   24.4150 C.ar  304  TYR304     -0.0009
     84  CE1       -1.3480   41.6890   23.9560 C.ar  304  TYR304      0.0417
     85  CE2       -1.5190   39.2850   23.8980 C.ar  304  TYR304      0.0417
     86  CZ        -0.7920   40.4510   23.6740 C.ar  304  TYR304      0.1957
     87  OH         0.4930   40.3830   23.1850 O.3   304  TYR304     -0.2866
     88  N        -16.1160   37.5880   20.1040 N.3   318  GLU318     -0.1245
     89  CA       -15.5090   38.5290   19.1820 C.3   318  GLU318      0.1567
     90  C        -16.1290   38.2700   17.8190 C.2   318  GLU318      0.2260
     91  O        -16.7960   37.2520   17.6210 O.2   318  GLU318     -0.2867
     92  CB       -13.9920   38.3230   19.1200 C.3   318  GLU318      0.0388
     93  CG       -13.2310   38.9130   20.2940 C.3   318  GLU318      0.1160
     94  CD       -11.7220   38.7850   20.1430 C.2   318  GLU318      0.3649
     95  OE1      -11.2190   38.9340   19.0090 O.co2 318  GLU318     -0.2457
     96  OE2      -11.0330   38.5540   21.1590 O.co2 318  GLU318     -0.2457
     97  N         -4.3580   43.2450   12.5130 N.3   355  TRP355     -0.1241
     98  CA        -2.9940   43.0720   12.9570 C.3   355  TRP355      0.1605
     99  C         -2.4880   41.7370   12.4410 C.2   355  TRP355      0.2264
    100  O         -3.2660   40.8490   12.1060 O.2   355  TRP355     -0.2867
    101  CB        -2.8770   43.1530   14.4900 C.3   355  TRP355      0.0550
    102  CG        -3.8140   42.2770   15.2590 C.ar  355  TRP355      0.0003
    103  CD1       -5.0000   42.6450   15.8310 C.ar  355  TRP355      0.0946
    104  CD2       -3.6450   40.8830   15.5430 C.ar  355  TRP355      0.0152
    105  NE1       -5.5790   41.5650   16.4560 N.ar  355  TRP355     -0.2442
    106  CE2       -4.7690   40.4710   16.2930 C.ar  355  TRP355      0.0810
    107  CE3       -2.6550   39.9410   15.2340 C.ar  355  TRP355      0.0012
    108  CZ2       -4.9300   39.1560   16.7400 C.ar  355  TRP355      0.0191
    109  CZ3       -2.8160   38.6280   15.6790 C.ar  355  TRP355      0.0001
    110  CH2       -3.9480   38.2530   16.4240 C.ar  355  TRP355      0.0015
    111  N          0.7140   38.7720   13.1280 N.3   357  GLN357     -0.1245
    112  CA         1.7910   38.3220   13.9860 C.3   357  GLN357      0.1566
    113  C          2.7440   37.5250   13.1090 C.2   357  GLN357      0.2260
    114  O          2.3580   36.5230   12.5000 O.2   357  GLN357     -0.2867
    115  CB         1.2490   37.4890   15.1570 C.3   357  GLN357      0.0367
    116  CG         0.6600   38.3660   16.2650 C.3   357  GLN357      0.0905
    117  CD         0.0740   37.5880   17.4380 C.2   357  GLN357      0.2608
    118  OE1       -0.2610   38.1740   18.4710 O.2   357  GLN357     -0.2717
    119  NE2       -0.0610   36.2780   17.2840 N.am  357  GLN357     -0.0878
    120  N         -0.0750   34.9600   11.5130 N.3   388  GLN388     -0.1245
    121  CA        -1.4640   34.9990   11.9100 C.3   388  GLN388      0.1566
    122  C         -1.9630   36.3230   11.3640 C.2   388  GLN388      0.2260
    123  O         -1.3060   37.3570   11.5340 O.2   388  GLN388     -0.2867
    124  CB        -1.6590   34.9760   13.4320 C.3   388  GLN388      0.0367
    125  CG        -3.1530   35.0000   13.7770 C.3   388  GLN388      0.0905
    126  CD        -3.4720   34.7860   15.2480 C.2   388  GLN388      0.2608
    127  OE1       -4.6250   34.5550   15.6050 O.2   388  GLN388     -0.2717
    128  NE2       -2.4640   34.8720   16.1030 N.am  388  GLN388     -0.0878
    129  N         -5.3140   38.7660   11.4300 N.3   390  TYR390     -0.1241
    130  CA        -6.5400   38.9480   12.1880 C.3   390  TYR390      0.1605
    131  C         -7.2670   40.1890   11.7160 C.2   390  TYR390      0.2264
    132  O         -6.7470   41.3020   11.8120 O.2   390  TYR390     -0.2867
    133  CB        -6.2010   39.0910   13.6620 C.3   390  TYR390      0.0534
    134  CG        -7.1990   38.4930   14.6140 C.ar  390  TYR390     -0.0201
    135  CD1       -7.1600   37.1380   14.9310 C.ar  390  TYR390     -0.0009
    136  CD2       -8.1340   39.2960   15.2610 C.ar  390  TYR390     -0.0009
    137  CE1       -8.0210   36.5950   15.8850 C.ar  390  TYR390      0.0417
    138  CE2       -8.9960   38.7700   16.2030 C.ar  390  TYR390      0.0417
    139  CZ        -8.9310   37.4220   16.5200 C.ar  390  TYR390      0.1957
    140  OH        -9.7300   36.9200   17.5150 O.3   390  TYR390     -0.2866
    141  N         -4.9690   28.3930   13.5800 N.3   433  TYR433     -0.1241
    142  CA        -5.3130   29.7490   13.1180 C.3   433  TYR433      0.1605
    143  C         -6.1010   29.5250   11.8290 C.2   433  TYR433      0.2264
    144  O         -5.7070   29.9740   10.7510 O.2   433  TYR433     -0.2867
    145  CB        -4.0660   30.5780   12.8020 C.3   433  TYR433      0.0534
    146  CG        -3.1990   30.9100   13.9910 C.ar  433  TYR433     -0.0201
    147  CD1       -3.7140   30.8830   15.2860 C.ar  433  TYR433     -0.0009
    148  CD2       -1.8630   31.2710   13.8190 C.ar  433  TYR433     -0.0009
    149  CE1       -2.9200   31.2040   16.3840 C.ar  433  TYR433      0.0417
    150  CE2       -1.0590   31.5960   14.9080 C.ar  433  TYR433      0.0417
    151  CZ        -1.5970   31.5580   16.1860 C.ar  433  TYR433      0.1957
    152  OH        -0.8070   31.8640   17.2670 O.3   433  TYR433     -0.2866
@<TRIPOS>BOND
     1   144   143    2
     2   122   123    2
     3   122   121    1
     4   129   130    1
     5   120   121    1
     6   131   132    2
     7   131   130    1
     8   143   142    1
     9   121   124    1
    10   100    99    2
    11   130   133    1
    12    99    98    1
    13   114   113    2
    14    97    98    1
    15   145   142    1
    16   145   146    1
    17    98   101    1
    18   113   112    1
    19   142   141    1
    20   111   112    1
    21    25    24    2
    22   124   125    1
    23   133   134    1
    24    24    23    1
    25   125   126    1
    26   148   146   ar
    27   148   150   ar
    28    26    23    1
    29    26    27    1
    30   112   115    1
    31   146   147   ar
    32    29    27   ar
    33    29    31   ar
    34   101   102    1
    35   134   135   ar
    36   134   136   ar
    37    23    22    1
    38    61    60    2
    39    27    28   ar
    40    60    59    1
    41   150   151   ar
    42   135   137   ar
    43    31    32   ar
    44   115   116    1
    45   107   104   ar
    46   107   109   ar
    47   126   127    2
    48   126   128   am
    49   102   104   ar
    50   102   103   ar
    51   136   138   ar
    52   147   149   ar
    53   104   106   ar
    54   109   110   ar
    55   103   105   ar
    56   137   139   ar
    57    58    59    1
    58    59    62    1
    59    28    30   ar
    60   151   149   ar
    61   151   152    1
    62   138   139   ar
    63   116   117    1
    64   106   105   ar
    65   106   108   ar
    66    32    30   ar
    67    32    33    1
    68   110   108   ar
    69   139   140    1
    70    49    48    1
    71    49    50    2
    72    48    51    1
    73    48    47    1
    74   119   117   am
    75    62    63    1
    76    51    52    1
    77    63    64    1
    78   117   118    2
    79    91    90    2
    80    90    89    1
    81    52    53    1
    82    64    65   ar
    83    64    66   ar
    84    15    14    2
    85    53    54    1
    86    95    94   ar
    87    92    89    1
    88    92    93    1
    89    89    88    1
    90     3     4    2
    91     3     2    1
    92    14    13    1
    93     8    10   ar
    94     8     6   ar
    95    67    68    1
    96    54    55    2
    97    10    11   ar
    98     1     2    1
    99    94    93    1
   100    94    96   ar
   101    56    55    1
   102     2     5    1
   103    70    69    2
   104    55    57    1
   105     5     6    1
   106    72    73    1
   107    72    71    1
   108     6     7   ar
   109    13    12    1
   110    13    16    1
   111    11     9   ar
   112    75    73   ar
   113    68    69    1
   114    68    71    1
   115    73    74   ar
   116    16    17    1
   117     7     9   ar
   118    18    17   ar
   119    18    20   ar
   120    17    19   ar
   121    20    21   ar
   122    87    86    1
   123    46    45    1
   124    39    38    1
   125    86    85   ar
   126    86    84   ar
   127    19    21   ar
   128    85    83   ar
   129    84    82   ar
   130    40    38    1
   131    83    81   ar
   132    82    81   ar
   133    34    35    1
   134    45    42    1
   135    81    80    1
   136    38    35    1
   137    80    77    1
   138    41    42    1
   139    41    36   am
   140    35    36    1
   141    42    43    1
   142    36    37    2
   143    79    78    2
   144    44    43    2
   145    77    78    1
   146    77    76    1
