@<TRIPOS>MOLECULE
tmp/2axtD16.pdb
 207 198 0 0 0
SMALL
GASTEIGER

@<TRIPOS>ATOM
      1  N         18.7550   40.8780   41.0560 N.3   187  MET187     -0.1245
      2  CA        19.0300   41.6370   39.8620 C.3   187  MET187      0.1570
      3  C         18.8450   43.0930   40.2470 C.2   187  MET187      0.2261
      4  O         19.6870   43.9210   39.9440 O.2   187  MET187     -0.2867
      5  CB        18.0810   41.2380   38.7350 C.3   187  MET187      0.0387
      6  CG        18.3580   39.8580   38.1760 C.3   187  MET187      0.0595
      7  SD        17.4700   39.5200   36.6520 S.3   187  MET187     -0.1393
      8  CE        16.0080   38.8590   37.2920 C.3   187  MET187      0.0692
      9  N         22.0350   44.1720   41.6910 N.3   190  ALA190     -0.1231
     10  CA        23.0580   44.1480   40.6720 C.3   190  ALA190      0.1694
     11  C         22.9420   45.3420   39.7440 C.2   190  ALA190      0.2592
     12  O         23.9150   45.7460   39.1410 O.2   190  ALA190     -0.2718
     13  CB        22.9550   42.8830   39.8870 C.3   190  ALA190      0.0304
     14  N         21.7520   45.9070   39.6170 N.am  191  GLY191     -0.1957
     15  CA        21.5630   47.0440   38.7330 C.3   191  GLY191      0.1869
     16  C         21.7570   48.3760   39.4380 C.2   191  GLY191      0.2309
     17  O         22.4530   49.2520   38.9290 O.2   191  GLY191     -0.2863
     18  N         25.4280   48.4370   40.3560 N.3   194  GLY194     -0.1225
     19  CA        26.3410   48.6030   39.2500 C.3   194  GLY194      0.1811
     20  C         26.0390   49.8550   38.4550 C.2   194  GLY194      0.2280
     21  O         26.8440   50.3090   37.6400 O.2   194  GLY194     -0.2866
     22  N         28.2550   52.1720   40.0290 N.3   197  LEU197     -0.1231
     23  CA        29.6240   51.9930   39.5580 C.3   197  LEU197      0.1693
     24  C         29.8270   52.6610   38.2000 C.2   197  LEU197      0.2591
     25  O         30.8630   53.2780   37.9480 O.2   197  LEU197     -0.2718
     26  CB        29.9720   50.5000   39.4760 C.3   197  LEU197      0.0284
     27  CG        31.3780   50.1500   38.9610 C.3   197  LEU197      0.0019
     28  CD1       31.9760   48.9830   39.6980 C.3   197  LEU197      0.0001
     29  CD2       31.2780   49.8340   37.5010 C.3   197  LEU197      0.0001
     30  N         28.8490   52.5470   37.3200 N.am  198  LEU198     -0.1980
     31  CA        28.9960   53.1790   36.0290 C.3   198  LEU198      0.1596
     32  C         29.0090   54.6760   36.2460 C.2   198  LEU198      0.2287
     33  O         29.8800   55.3750   35.7450 O.2   198  LEU198     -0.2864
     34  CB        27.8500   52.7800   35.1140 C.3   198  LEU198      0.0297
     35  CG        27.9070   51.3370   34.6400 C.3   198  LEU198      0.0022
     36  CD1       26.8780   51.0680   33.5590 C.3   198  LEU198      0.0001
     37  CD2       29.2780   51.1000   34.0920 C.3   198  LEU198      0.0001
     38  N         32.5280   55.4060   37.6310 N.3   201  ILE201     -0.1231
     39  CA        33.7380   55.0290   36.9430 C.3   201  ILE201      0.1692
     40  C         33.8230   55.9050   35.7050 C.2   201  ILE201      0.2592
     41  O         34.9030   56.3310   35.3040 O.2   201  ILE201     -0.2718
     42  CB        33.6890   53.5860   36.5480 C.3   201  ILE201      0.0266
     43  CG1       35.0680   53.1120   36.1060 C.3   201  ILE201      0.0019
     44  CG2       32.6830   53.4180   35.4570 C.3   201  ILE201      0.0020
     45  CD1       35.1150   51.6450   35.7650 C.3   201  ILE201      0.0001
     46  N         32.6760   56.1850   35.1030 N.am  202  HIS202     -0.1976
     47  CA        32.6230   57.0400   33.9140 C.3   202  HIS202      0.1656
     48  C         32.9820   58.4600   34.2960 C.2   202  HIS202      0.2291
     49  O         33.7220   59.1230   33.5820 O.2   202  HIS202     -0.2864
     50  CB        31.2150   57.0270   33.3070 C.3   202  HIS202      0.0771
     51  CG        31.0470   57.9400   32.1330 C.ar  202  HIS202      0.0820
     52  ND1       31.8880   57.9130   31.0420 N.ar  202  HIS202     -0.2267
     53  CD2       30.1030   58.8700   31.8590 C.ar  202  HIS202      0.1154
     54  CE1       31.4670   58.7860   30.1450 C.ar  202  HIS202      0.1986
     55  NE2       30.3870   59.3800   30.6160 N.ar  202  HIS202     -0.2212
     56  N         36.6870   58.5530   34.7960 N.3   205  THR205     -0.1203
     57  CA        37.4150   58.3850   33.5460 C.3   205  THR205      0.1994
     58  C         37.3930   59.7200   32.7710 C.2   205  THR205      0.2617
     59  O         38.4210   60.1880   32.2910 O.2   205  THR205     -0.2717
     60  CB        36.7980   57.2520   32.6870 C.3   205  THR205      0.1784
     61  OG1       37.0120   56.0010   33.3400 O.3   205  THR205     -0.2211
     62  CG2       37.4350   57.2000   31.3250 C.3   205  THR205      0.0376
     63  N         36.2340   60.3350   32.6540 N.am  206  VAL206     -0.1979
     64  CA        36.1730   61.5920   31.9480 C.3   206  VAL206      0.1595
     65  C         37.1160   62.6070   32.5820 C.2   206  VAL206      0.2287
     66  O         37.9990   63.1330   31.9080 O.2   206  VAL206     -0.2864
     67  CB        34.7220   62.1450   31.9170 C.3   206  VAL206      0.0276
     68  CG1       34.7170   63.6460   32.0510 C.3   206  VAL206      0.0022
     69  CG2       34.0650   61.7820   30.6090 C.3   206  VAL206      0.0022
     70  N         37.6170   65.4050   26.5980 N.3   232  TYR232     -0.1241
     71  CA        38.5420   64.4480   27.1770 C.3   232  TYR232      0.1605
     72  C         38.8990   63.6020   25.9780 C.2   232  TYR232      0.2264
     73  O         38.3810   63.8530   24.9030 O.2   232  TYR232     -0.2867
     74  CB        37.8550   63.5980   28.2600 C.3   232  TYR232      0.0534
     75  CG        36.6120   62.8250   27.8110 C.ar  232  TYR232     -0.0201
     76  CD1       35.3670   63.4660   27.6520 C.ar  232  TYR232     -0.0009
     77  CD2       36.6760   61.4390   27.5690 C.ar  232  TYR232     -0.0009
     78  CE1       34.2310   62.7490   27.2740 C.ar  232  TYR232      0.0417
     79  CE2       35.5350   60.7150   27.1830 C.ar  232  TYR232      0.0417
     80  CZ        34.3220   61.3760   27.0390 C.ar  232  TYR232      0.1957
     81  OH        33.2140   60.6530   26.6480 O.3   232  TYR232     -0.2866
     82  N         38.6060   60.0900   24.3590 N.3   234  MET234     -0.1245
     83  CA        38.0250   58.7680   24.3270 C.3   234  MET234      0.1570
     84  C         39.0880   57.7480   23.9430 C.2   234  MET234      0.2261
     85  O         39.0740   56.6370   24.4260 O.2   234  MET234     -0.2867
     86  CB        36.8900   58.7410   23.3110 C.3   234  MET234      0.0387
     87  CG        36.2950   57.3650   23.0640 C.3   234  MET234      0.0595
     88  SD        35.3540   56.7660   24.4630 S.3   234  MET234     -0.1393
     89  CE        33.8270   56.3290   23.7170 C.3   234  MET234      0.0692
     90  N         41.3230   56.9610   26.9770 N.3   237  ALA237     -0.1231
     91  CA        40.5160   56.1880   27.9230 C.3   237  ALA237      0.1694
     92  C         40.4940   54.7390   27.4820 C.2   237  ALA237      0.2592
     93  O         41.0550   53.8790   28.1420 O.2   237  ALA237     -0.2718
     94  CB        39.1080   56.7320   27.9730 C.3   237  ALA237      0.0304
     95  N         39.8340   54.4770   26.3680 N.am  238  ASN238     -0.1974
     96  CA        39.7660   53.1340   25.8020 C.3   238  ASN238      0.1688
     97  C         41.0770   52.3650   26.0130 C.2   238  ASN238      0.2292
     98  O         41.0510   51.1580   26.2310 O.2   238  ASN238     -0.2864
     99  CB        39.4270   53.2530   24.3080 C.3   238  ASN238      0.1181
    100  CG        39.9080   52.0650   23.4730 C.2   238  ASN238      0.2629
    101  OD1       41.1170   51.7720   23.3780 O.2   238  ASN238     -0.2716
    102  ND2       38.9540   51.3900   22.8320 N.am  238  ASN238     -0.0877
    103  N         41.8010   51.5600   30.4170 N.3   241  TRP241     -0.1241
    104  CA        41.0060   50.4010   30.8090 C.3   241  TRP241      0.1605
    105  C         41.3480   49.0950   30.1040 C.2   241  TRP241      0.2264
    106  O         41.5750   48.0810   30.7640 O.2   241  TRP241     -0.2867
    107  CB        39.5150   50.7170   30.6630 C.3   241  TRP241      0.0550
    108  CG        39.1000   51.7930   31.5990 C.ar  241  TRP241      0.0003
    109  CD1       38.6530   53.0290   31.2690 C.ar  241  TRP241      0.0946
    110  CD2       39.1610   51.7530   33.0320 C.ar  241  TRP241      0.0152
    111  NE1       38.4310   53.7700   32.4030 N.ar  241  TRP241     -0.2442
    112  CE2       38.7360   53.0080   33.5000 C.ar  241  TRP241      0.0810
    113  CE3       39.5400   50.7760   33.9650 C.ar  241  TRP241      0.0012
    114  CZ2       38.6750   53.3160   34.8650 C.ar  241  TRP241      0.0191
    115  CZ3       39.4810   51.0840   35.3210 C.ar  241  TRP241      0.0001
    116  CH2       39.0510   52.3430   35.7540 C.ar  241  TRP241      0.0015
    117  N         42.1070   46.1380   32.7300 N.3   245  PHE245     -0.1241
    118  CA        40.8690   45.4620   33.0500 C.3   245  PHE245      0.1605
    119  C         40.4600   44.6840   31.8330 C.2   245  PHE245      0.2264
    120  O         39.3700   44.1520   31.7760 O.2   245  PHE245     -0.2867
    121  CB        39.7900   46.4750   33.4110 C.3   245  PHE245      0.0534
    122  CG        38.4750   45.8610   33.8500 C.ar  245  PHE245     -0.0203
    123  CD1       37.4180   45.7000   32.9570 C.ar  245  PHE245     -0.0042
    124  CD2       38.2900   45.4740   35.1570 C.ar  245  PHE245     -0.0042
    125  CE1       36.2010   45.1630   33.3710 C.ar  245  PHE245     -0.0003
    126  CE2       37.0870   44.9400   35.5680 C.ar  245  PHE245     -0.0003
    127  CZ        36.0390   44.7850   34.6730 C.ar  245  PHE245     -0.0000
    128  N         38.9140   44.8600   29.2220 N.3   247  ILE247     -0.1231
    129  CA        37.8350   45.3650   28.4030 C.3   247  ILE247      0.1692
    130  C         37.7140   46.8580   28.6050 C.2   247  ILE247      0.2592
    131  O         38.0590   47.3920   29.6570 O.2   247  ILE247     -0.2718
    132  CB        36.5250   44.7030   28.7610 C.3   247  ILE247      0.0266
    133  CG1       36.6840   43.1850   28.6550 C.3   247  ILE247      0.0019
    134  CG2       35.4480   45.1890   27.8370 C.3   247  ILE247      0.0020
    135  CD1       37.2200   42.7080   27.3110 C.3   247  ILE247      0.0001
    136  N         37.2140   47.5320   27.5890 N.am  248  ALA248     -0.1966
    137  CA        37.0950   48.9690   27.6610 C.3   248  ALA248      0.1728
    138  C         36.1500   49.4800   26.5930 C.2   248  ALA248      0.2616
    139  O         36.1120   48.9320   25.4940 O.2   248  ALA248     -0.2715
    140  CB        38.4760   49.5830   27.4670 C.3   248  ALA248      0.0334
    141  N         35.3960   50.5280   26.9100 N.am  249  PHE249     -0.1974
    142  CA        34.4710   51.1160   25.9450 C.3   249  PHE249      0.1639
    143  C         35.2060   51.6060   24.6740 C.2   249  PHE249      0.2290
    144  O         36.4110   51.4190   24.5080 O.2   249  PHE249     -0.2864
    145  CB        33.7220   52.2940   26.5810 C.3   249  PHE249      0.0560
    146  CG        32.4650   51.8940   27.3240 C.ar  249  PHE249     -0.0200
    147  CD1       31.3310   51.4620   26.6310 C.ar  249  PHE249     -0.0042
    148  CD2       32.4250   51.9010   28.7170 C.ar  249  PHE249     -0.0042
    149  CE1       30.1830   51.0390   27.3180 C.ar  249  PHE249     -0.0003
    150  CE2       31.2840   51.4810   29.4040 C.ar  249  PHE249     -0.0003
    151  CZ        30.1640   51.0480   28.7030 C.ar  249  PHE249     -0.0000
    152  N         28.2170   53.5420   25.2590 N.3   255  LEU255     -0.1245
    153  CA        28.5030   53.7430   26.6660 C.3   255  LEU255      0.1561
    154  C         27.3110   54.3970   27.3400 C.2   255  LEU255      0.2260
    155  O         26.8010   53.8820   28.3250 O.2   255  LEU255     -0.2867
    156  CB        29.7390   54.6130   26.8570 C.3   255  LEU255      0.0270
    157  CG        30.0890   54.8640   28.3180 C.3   255  LEU255      0.0019
    158  CD1       31.5230   55.2590   28.4140 C.3   255  LEU255      0.0001
    159  CD2       29.1910   55.9200   28.9000 C.3   255  LEU255      0.0001
    160  N         24.1350   52.0790   27.6230 N.3   258  PHE258     -0.1241
    161  CA        24.3670   51.0630   28.6540 C.3   258  PHE258      0.1605
    162  C         23.9890   51.7150   29.9820 C.2   258  PHE258      0.2264
    163  O         23.2220   51.1560   30.7440 O.2   258  PHE258     -0.2867
    164  CB        25.8550   50.6820   28.6640 C.3   258  PHE258      0.0534
    165  CG        26.1910   49.4320   29.4610 C.ar  258  PHE258     -0.0203
    166  CD1       25.6480   48.2030   29.1240 C.ar  258  PHE258     -0.0042
    167  CD2       27.1180   49.4780   30.4930 C.ar  258  PHE258     -0.0042
    168  CE1       26.0270   47.0570   29.7930 C.ar  258  PHE258     -0.0003
    169  CE2       27.4950   48.3320   31.1610 C.ar  258  PHE258     -0.0003
    170  CZ        26.9500   47.1250   30.8070 C.ar  258  PHE258     -0.0000
    171  N         20.3900   51.5830   30.4080 N.3   261  PHE261     -0.1227
    172  CA        19.8550   50.2330   30.5160 C.3   261  PHE261      0.1736
    173  C         20.1030   49.5450   31.8510 C.2   261  PHE261      0.2595
    174  O         19.2060   48.9170   32.4320 O.2   261  PHE261     -0.2718
    175  CB        20.4570   49.3890   29.3990 C.3   261  PHE261      0.0547
    176  CG        20.0700   47.9620   29.4420 C.ar  261  PHE261     -0.0202
    177  CD1       18.8270   47.5590   29.0110 C.ar  261  PHE261     -0.0042
    178  CD2       20.9570   47.0240   29.9120 C.ar  261  PHE261     -0.0042
    179  CE1       18.4740   46.2490   29.0460 C.ar  261  PHE261     -0.0003
    180  CE2       20.6140   45.7140   29.9500 C.ar  261  PHE261     -0.0003
    181  CZ        19.3640   45.3200   29.5160 C.ar  261  PHE261     -0.0000
    182  N         21.3360   49.6590   32.3250 N.am  262  VAL262     -0.1980
    183  CA        21.7350   49.0210   33.5640 C.3   262  VAL262      0.1595
    184  C         20.8400   49.3760   34.7350 C.2   262  VAL262      0.2287
    185  O         20.0600   48.5430   35.1730 O.2   262  VAL262     -0.2864
    186  CB        23.2160   49.3190   33.8760 C.3   262  VAL262      0.0276
    187  CG1       23.5330   48.9430   35.2880 C.3   262  VAL262      0.0022
    188  CG2       24.0970   48.5280   32.9330 C.3   262  VAL262      0.0022
    189  N         16.8720   48.7580   33.9540 N.3   265  THR265     -0.1203
    190  CA        16.5180   47.3500   33.9370 C.3   265  THR265      0.1994
    191  C         16.4300   46.7510   35.3470 C.2   265  THR265      0.2618
    192  O         15.4330   46.1120   35.7050 O.2   265  THR265     -0.2717
    193  CB        17.5440   46.5640   33.1240 C.3   265  THR265      0.1784
    194  OG1       17.5640   47.0730   31.7890 O.3   265  THR265     -0.2211
    195  CG2       17.2090   45.0850   33.1050 C.3   265  THR265      0.0376
    196  N         17.4680   46.9550   36.1460 N.am  266  GLY266     -0.1956
    197  CA        17.4790   46.4200   37.4990 C.3   266  GLY266      0.1869
    198  C         16.3300   46.8330   38.4070 C.2   266  GLY266      0.2309
    199  O         15.9180   46.0760   39.2850 O.2   266  GLY266     -0.2863
    200  N         13.3640   44.6540   37.2880 N.3   269  MET269     -0.1245
    201  CA        13.3550   43.2990   37.8040 C.3   269  MET269      0.1570
    202  C         12.9730   43.3900   39.2770 C.2   269  MET269      0.2261
    203  O         12.2700   42.5420   39.8410 O.2   269  MET269     -0.2867
    204  CB        14.7340   42.6670   37.6400 C.3   269  MET269      0.0387
    205  CG        15.2240   42.6300   36.2020 C.3   269  MET269      0.0595
    206  SD        14.2100   41.6110   35.1080 S.3   269  MET269     -0.1393
    207  CE        13.1030   42.7750   34.4240 C.3   269  MET269      0.0692
@<TRIPOS>BOND
     1   102   100   am
     2    87    86    1
     3    87    88    1
     4    86    83    1
     5   101   100    2
     6   100    99    1
     7    89    88    1
     8    84    83    1
     9    84    85    2
    10    99    96    1
    11    83    82    1
    12   144   143    2
    13   143   142    1
    14    73    72    2
    15   152   153    1
    16   139   138    2
    17    96    97    1
    18    96    95    1
    19   142   145    1
    20   142   141    1
    21    72    71    1
    22    97    98    2
    23    95    92   am
    24   145   146    1
    25   138   141   am
    26   138   137    1
    27    70    71    1
    28   147   149   ar
    29   147   146   ar
    30    81    80    1
    31   153   156    1
    32   153   154    1
    33   156   157    1
    34    90    91    1
    35    80    79   ar
    36    80    78   ar
    37    71    74    1
    38    79    77   ar
    39    78    76   ar
    40   135   133    1
    41   149   151   ar
    42   146   148   ar
    43   154   155    2
    44   140   137    1
    45    92    91    1
    46    92    93    2
    47    77    75   ar
    48   136   137    1
    49   136   130   am
    50   160   161    1
    51    76    75   ar
    52    75    74    1
    53   134   132    1
    54    91    94    1
    55   157   158    1
    56   157   159    1
    57   129   130    1
    58   129   132    1
    59   129   128    1
    60   130   131    2
    61   161   164    1
    62   161   162    1
    63   133   132    1
    64   164   165    1
    65   151   150   ar
    66   148   150   ar
    67   177   179   ar
    68   177   176   ar
    69   179   181   ar
    70   166   165   ar
    71   166   168   ar
    72   175   176    1
    73   175   172    1
    74   176   178   ar
    75   165   167   ar
    76   181   180   ar
    77   168   170   ar
    78   178   180   ar
    79   162   163    2
    80   105   106    2
    81   105   104    1
    82    54    55   ar
    83    54    52   ar
    84   171   172    1
    85   103   104    1
    86   167   169   ar
    87   172   173    1
    88    69    67    1
    89    55    53   ar
    90   107   104    1
    91   107   108    1
    92   170   169   ar
    93    52    51   ar
    94   109   108   ar
    95   109   111   ar
    96    62    60    1
    97   108   110   ar
    98   120   119    2
    99   194   193    1
   100   119   118    1
   101   173   182   am
   102   173   174    2
   103    53    51   ar
   104    66    65    2
   105    67    64    1
   106    67    68    1
   107    64    65    1
   108    64    63    1
   109    51    50    1
   110    59    58    2
   111   182   183    1
   112   111   112   ar
   113    63    58   am
   114    60    61    1
   115    60    57    1
   116   117   118    1
   117    58    57    1
   118   188   186    1
   119   123   125   ar
   120   123   122   ar
   121   110   112   ar
   122   110   113   ar
   123   118   121    1
   124   195   193    1
   125   193   190    1
   126    50    47    1
   127   125   127   ar
   128   121   122    1
   129   112   114   ar
   130    57    56    1
   131    36    35    1
   132   183   186    1
   133   183   184    1
   134    49    48    2
   135   122   124   ar
   136   186   187    1
   137    47    48    1
   138    47    46    1
   139   190   189    1
   140   190   191    1
   141   113   115   ar
   142    37    35    1
   143   207   206    1
   144    35    34    1
   145   127   126   ar
   146   184   185    2
   147   114   116   ar
   148    46    40   am
   149   206   205    1
   150    34    31    1
   151   124   126   ar
   152    41    40    2
   153   115   116   ar
   154   191   192    2
   155   191   196   am
   156    44    42    1
   157    40    39    1
   158    33    32    2
   159    45    43    1
   160    31    32    1
   161    31    30    1
   162    43    42    1
   163   196   197    1
   164   205   204    1
   165    42    39    1
   166     7     8    1
   167     7     6    1
   168    39    38    1
   169   200   201    1
   170    30    24   am
   171   197   198    1
   172    29    27    1
   173    21    20    2
   174   204   201    1
   175   201   202    1
   176    25    24    2
   177     6     5    1
   178    24    23    1
   179   198   199    2
   180    20    19    1
   181    15    16    1
   182    15    14    1
   183     5     2    1
   184    17    16    2
   185    27    26    1
   186    27    28    1
   187    12    11    2
   188    19    18    1
   189   202   203    2
   190    26    23    1
   191    23    22    1
   192    14    11   am
   193    11    10    1
   194     2     3    1
   195     2     1    1
   196    13    10    1
   197     4     3    2
   198    10     9    1
