@<TRIPOS>MOLECULE
tmp/2axtA04.pdb
 101 101 0 0 0
SMALL
GASTEIGER

@<TRIPOS>ATOM
      1  N         23.6790   57.3420   60.3610 N.3   187  PRO187     -0.2102
      2  CA        23.9170   58.3530   59.3290 C.3   187  PRO187      0.1504
      3  C         24.7760   57.8800   58.1630 C.2   187  PRO187      0.2575
      4  O         24.4060   58.0610   56.9930 O.2   187  PRO187     -0.2718
      5  CB        24.5800   59.4710   60.1070 C.3   187  PRO187      0.0282
      6  CG        23.8960   59.3730   61.4100 C.3   187  PRO187      0.0208
      7  CD        23.9280   57.9130   61.6950 C.3   187  PRO187      0.0893
      8  N         25.9160   57.2670   58.4870 N.am  188  PHE188     -0.1977
      9  CA        26.8440   56.7830   57.4620 C.3   188  PHE188      0.1639
     10  C         26.2680   55.7890   56.4420 C.2   188  PHE188      0.2290
     11  O         26.7310   55.7680   55.2930 O.2   188  PHE188     -0.2864
     12  CB        28.1110   56.2160   58.1160 C.3   188  PHE188      0.0560
     13  CG        29.0760   57.2740   58.6070 C.ar  188  PHE188     -0.0200
     14  CD1       28.8080   58.6220   58.4430 C.ar  188  PHE188     -0.0042
     15  CD2       30.2320   56.9100   59.2830 C.ar  188  PHE188     -0.0042
     16  CE1       29.6650   59.5770   58.9470 C.ar  188  PHE188     -0.0003
     17  CE2       31.0920   57.8660   59.7930 C.ar  188  PHE188     -0.0003
     18  CZ        30.8080   59.1970   59.6260 C.ar  188  PHE188     -0.0000
     19  N         22.9290   55.7110   55.6710 N.3   190  GLN190     -0.1231
     20  CA        21.9500   56.4850   54.9170 C.3   190  GLN190      0.1698
     21  C         22.6490   57.2790   53.8370 C.2   190  GLN190      0.2592
     22  O         22.1170   57.4900   52.7640 O.2   190  GLN190     -0.2718
     23  CB        21.1970   57.4050   55.8390 C.3   190  GLN190      0.0381
     24  CG        20.4720   56.6770   56.9230 C.3   190  GLN190      0.0905
     25  CD        20.1330   57.5940   58.0760 C.2   190  GLN190      0.2608
     26  OE1       20.9860   58.3180   58.5800 O.2   190  GLN190     -0.2717
     27  NE2       18.8890   57.5650   58.5030 N.am  190  GLN190     -0.0878
     28  N         23.8520   57.7210   54.1290 N.am  191  LEU191     -0.1980
     29  CA        24.6130   58.4290   53.1280 C.3   191  LEU191      0.1596
     30  C         25.1030   57.3880   52.1210 C.2   191  LEU191      0.2287
     31  O         25.2930   57.6850   50.9440 O.2   191  LEU191     -0.2864
     32  CB        25.7970   59.1630   53.7600 C.3   191  LEU191      0.0297
     33  CG        25.4620   60.4230   54.5380 C.3   191  LEU191      0.0022
     34  CD1       26.7320   61.0510   55.0350 C.3   191  LEU191      0.0001
     35  CD2       24.7160   61.3820   53.6400 C.3   191  LEU191      0.0001
     36  N         22.1300   56.9940   49.9070 N.3   194  ALA194     -0.1245
     37  CA        21.9130   58.1660   49.0590 C.3   194  ALA194      0.1562
     38  C         22.9390   58.1030   47.9320 C.2   194  ALA194      0.2260
     39  O         22.6640   58.4990   46.7960 O.2   194  ALA194     -0.2867
     40  CB        22.0840   59.4610   49.8720 C.3   194  ALA194      0.0290
     41  N         29.6830   62.2580   43.7370 N.3   269  TRP269     -0.1241
     42  CA        28.4920   61.8630   44.4850 C.3   269  TRP269      0.1605
     43  C         28.5320   60.4310   44.9890 C.2   269  TRP269      0.2264
     44  O         28.4420   60.1990   46.1780 O.2   269  TRP269     -0.2867
     45  CB        27.2160   62.0830   43.6590 C.3   269  TRP269      0.0550
     46  CG        25.9970   61.6960   44.4220 C.ar  269  TRP269      0.0003
     47  CD1       25.4860   60.4520   44.5550 C.ar  269  TRP269      0.0946
     48  CD2       25.1940   62.5460   45.2330 C.ar  269  TRP269      0.0152
     49  NE1       24.4170   60.4630   45.3980 N.ar  269  TRP269     -0.2442
     50  CE2       24.2150   61.7430   45.8340 C.ar  269  TRP269      0.0810
     51  CE3       25.2080   63.9170   45.5140 C.ar  269  TRP269      0.0012
     52  CZ2       23.2540   62.2600   46.7050 C.ar  269  TRP269      0.0191
     53  CZ3       24.2520   64.4340   46.3800 C.ar  269  TRP269      0.0001
     54  CH2       23.2900   63.6030   46.9650 C.ar  269  TRP269      0.0015
     55  N         31.6290   56.8790   52.8780 N.3   276  PHE276     -0.1241
     56  CA        30.9230   56.8720   54.1450 C.3   276  PHE276      0.1605
     57  C         30.4570   55.5120   54.6300 C.2   276  PHE276      0.2264
     58  O         30.7610   55.1570   55.7700 O.2   276  PHE276     -0.2867
     59  CB        29.7400   57.8300   54.1060 C.3   276  PHE276      0.0534
     60  CG        30.1220   59.2630   54.3910 C.ar  276  PHE276     -0.0203
     61  CD1       29.8260   60.2780   53.4740 C.ar  276  PHE276     -0.0042
     62  CD2       30.8390   59.5920   55.5410 C.ar  276  PHE276     -0.0042
     63  CE1       30.2500   61.6000   53.6950 C.ar  276  PHE276     -0.0003
     64  CE2       31.2640   60.9030   55.7660 C.ar  276  PHE276     -0.0003
     65  CZ        30.9720   61.9070   54.8440 C.ar  276  PHE276     -0.0000
     66  N         21.5930   55.1830   65.5590 N.3   291  PHE291     -0.1227
     67  CA        20.7790   55.9180   66.5270 C.3   291  PHE291      0.1736
     68  C         19.9040   54.9750   67.3300 C.2   291  PHE291      0.2595
     69  O         19.5540   53.8940   66.8670 O.2   291  PHE291     -0.2718
     70  CB        19.9170   56.9560   65.8210 C.3   291  PHE291      0.0547
     71  CG        20.6600   58.2040   65.4650 C.ar  291  PHE291     -0.0202
     72  CD1       20.5740   58.7420   64.1990 C.ar  291  PHE291     -0.0042
     73  CD2       21.4710   58.8260   66.3960 C.ar  291  PHE291     -0.0042
     74  CE1       21.2890   59.8760   63.8740 C.ar  291  PHE291     -0.0003
     75  CE2       22.1850   59.9610   66.0710 C.ar  291  PHE291     -0.0003
     76  CZ        22.0980   60.4860   64.8140 C.ar  291  PHE291     -0.0000
     77  N         19.5410   55.3910   68.5320 N.am  292  ASN292     -0.1960
     78  CA        18.7290   54.5600   69.4020 C.3   292  ASN292      0.1819
     79  C         17.6050   55.3740   69.9650 C.2   292  ASN292      0.2621
     80  O         17.8370   56.1920   70.8290 O.2   292  ASN292     -0.2715
     81  CB        19.5830   54.0460   70.5420 C.3   292  ASN292      0.1195
     82  CG        18.8510   53.0770   71.4230 C.2   292  ASN292      0.2630
     83  OD1       17.6370   53.0990   71.4880 O.2   292  ASN292     -0.2716
     84  ND2       19.5920   52.2210   72.1220 N.am  292  ASN292     -0.0877
     85  N         16.3850   55.1530   69.4930 N.am  293  PHE293     -0.1974
     86  CA        15.2390   55.9130   69.9990 C.3   293  PHE293      0.1639
     87  C         14.1950   55.0510   70.6990 C.2   293  PHE293      0.2290
     88  O         13.0070   55.3740   70.7030 O.2   293  PHE293     -0.2864
     89  CB        14.5760   56.6880   68.8680 C.3   293  PHE293      0.0560
     90  CG        15.5070   57.6200   68.1620 C.ar  293  PHE293     -0.0200
     91  CD1       15.7190   57.5030   66.7870 C.ar  293  PHE293     -0.0042
     92  CD2       16.1880   58.5970   68.8660 C.ar  293  PHE293     -0.0042
     93  CE1       16.5950   58.3410   66.1320 C.ar  293  PHE293     -0.0003
     94  CE2       17.0700   59.4440   68.2180 C.ar  293  PHE293     -0.0003
     95  CZ        17.2730   59.3130   66.8460 C.ar  293  PHE293     -0.0000
     96  N         11.3970   56.4030   73.6820 N.3   296  SER296     -0.1217
     97  CA        11.4310   57.8660   73.7270 C.3   296  SER296      0.1889
     98  C          9.9270   58.1730   73.7260 C.2   296  SER296      0.2288
     99  O          9.1350   57.3380   74.1940 O.2   296  SER296     -0.2866
    100  CB        12.0980   58.4480   72.4930 C.3   296  SER296      0.2089
    101  OG        13.4650   58.0900   72.4820 O.3   296  SER296     -0.2183
@<TRIPOS>BOND
     1    45    46    1
     2    45    42    1
     3    41    42    1
     4    46    47   ar
     5    46    48   ar
     6    42    43    1
     7    47    49   ar
     8    43    44    2
     9    48    51   ar
    10    48    50   ar
    11    49    50   ar
    12    51    53   ar
    13    50    52   ar
    14    53    54   ar
    15    52    54   ar
    16    39    38    2
    17    38    37    1
    18    37    40    1
    19    37    36    1
    20    31    30    2
    21    30    29    1
    22    22    21    2
    23    55    56    1
    24    29    32    1
    25    29    28    1
    26    61    63   ar
    27    61    60   ar
    28    35    33    1
    29    63    65   ar
    30    32    33    1
    31    21    28   am
    32    21    20    1
    33    59    56    1
    34    59    60    1
    35    56    57    1
    36    60    62   ar
    37    33    34    1
    38    57    58    2
    39    65    64   ar
    40    20    19    1
    41    20    23    1
    42    11    10    2
    43    62    64   ar
    44    23    24    1
    45    10     9    1
    46    24    25    1
    47     4     3    2
    48     9    12    1
    49     9     8    1
    50    25    27   am
    51    25    26    2
    52    12    13    1
    53     3     8   am
    54     3     2    1
    55    14    13   ar
    56    14    16   ar
    57    13    15   ar
    58    16    18   ar
    59    15    17   ar
    60     2     5    1
    61     2     1    1
    62    18    17   ar
    63     5     6    1
    64     1     7    1
    65     6     7    1
    66    74    72   ar
    67    74    76   ar
    68    72    71   ar
    69    76    75   ar
    70    71    70    1
    71    71    73   ar
    72    66    67    1
    73    70    67    1
    74    75    73   ar
    75    93    91   ar
    76    93    95   ar
    77    67    68    1
    78    91    90   ar
    79    95    94   ar
    80    69    68    2
    81    68    77   am
    82    90    92   ar
    83    90    89    1
    84    94    92   ar
    85    77    78    1
    86    89    86    1
    87    78    79    1
    88    78    81    1
    89    85    79   am
    90    85    86    1
    91    79    80    2
    92    86    87    1
    93    81    82    1
    94    87    88    2
    95    82    83    2
    96    82    84   am
    97   101   100    1
    98   100    97    1
    99    96    97    1
   100    98    97    1
   101    98    99    2
