@<TRIPOS>MOLECULE
tmp/2axtU09.pdb
 133 129 0 0 0
SMALL
GASTEIGER

@<TRIPOS>ATOM
      1  N         -2.7110  -35.5130  -18.3850 N.3    41  MET41      -0.1245
      2  CA        -2.6720  -35.5360  -16.9130 C.3    41  MET41       0.1570
      3  C         -3.7800  -36.3920  -16.2670 C.2    41  MET41       0.2261
      4  O         -3.5240  -37.0690  -15.2650 O.2    41  MET41      -0.2867
      5  CB        -2.7270  -34.0960  -16.3620 C.3    41  MET41       0.0387
      6  CG        -2.5660  -33.9900  -14.8380 C.3    41  MET41       0.0595
      7  SD        -0.8490  -34.0830  -14.1950 S.3    41  MET41      -0.1393
      8  CE        -0.9010  -32.7600  -12.9640 C.3    41  MET41       0.0692
      9  N         -9.3170  -45.0540   -1.6450 N.3    53  LYS53      -0.1245
     10  CA        -8.3670  -44.3420   -0.8160 C.3    53  LYS53       0.1561
     11  C         -8.7690  -42.9180   -1.1550 C.2    53  LYS53       0.2260
     12  O         -8.8640  -42.5760   -2.3210 O.2    53  LYS53      -0.2867
     13  CB        -6.9260  -44.5930   -1.2500 C.3    53  LYS53       0.0271
     14  CG        -5.9620  -43.7800   -0.4370 C.3    53  LYS53       0.0035
     15  CD        -4.5240  -44.0450   -0.7860 C.3    53  LYS53       0.0206
     16  CE        -3.5920  -43.2490    0.1320 C.3    53  LYS53       0.1093
     17  NZ        -2.1550  -43.3250   -0.2780 N.3    53  LYS53      -0.1314
     18  N         -8.2710  -36.8660   -2.2010 N.3    56  TYR56      -0.1227
     19  CA        -7.3780  -35.8500   -1.6760 C.3    56  TYR56       0.1736
     20  C         -6.0540  -36.4160   -1.1650 C.2    56  TYR56       0.2595
     21  O         -5.0390  -35.7250   -1.1630 O.2    56  TYR56      -0.2718
     22  CB        -8.0950  -35.0240   -0.6030 C.3    56  TYR56       0.0548
     23  CG        -8.7580  -35.8020    0.5160 C.ar   56  TYR56      -0.0200
     24  CD1       -7.9980  -36.3760    1.5280 C.ar   56  TYR56      -0.0009
     25  CD2      -10.1570  -35.9000    0.6030 C.ar   56  TYR56      -0.0009
     26  CE1       -8.6120  -37.0250    2.6180 C.ar   56  TYR56       0.0417
     27  CE2      -10.7810  -36.5440    1.6770 C.ar   56  TYR56       0.0417
     28  CZ       -10.0040  -37.1000    2.6790 C.ar   56  TYR56       0.1957
     29  OH       -10.5910  -37.7210    3.7420 O.3    56  TYR56      -0.2866
     30  N         -6.0630  -37.6770   -0.7690 N.am   57  GLU57      -0.1965
     31  CA        -4.8540  -38.3170   -0.2830 C.3    57  GLU57       0.1733
     32  C         -4.0080  -38.8540   -1.4310 C.2    57  GLU57       0.2616
     33  O         -3.0200  -39.5610   -1.2040 O.2    57  GLU57      -0.2715
     34  CB        -5.1900  -39.4860    0.6450 C.3    57  GLU57       0.0429
     35  CG        -5.6670  -39.1230    2.0340 C.3    57  GLU57       0.1163
     36  CD        -5.9140  -40.3530    2.8820 C.2    57  GLU57       0.3649
     37  OE1       -5.0530  -41.2630    2.8570 O.co2  57  GLU57      -0.2457
     38  OE2       -6.9590  -40.4030    3.5710 O.co2  57  GLU57      -0.2457
     39  N         -4.3930  -38.5320   -2.6580 N.am   58  GLN58      -0.1963
     40  CA        -3.6480  -39.0120   -3.8250 C.3    58  GLN58       0.1733
     41  C         -3.2320  -37.9300   -4.8440 C.2    58  GLN58       0.2616
     42  O         -3.0080  -38.2380   -6.0070 O.2    58  GLN58      -0.2715
     43  CB        -4.4590  -40.0930   -4.5480 C.3    58  GLN58       0.0408
     44  CG        -4.7920  -41.3170   -3.7170 C.3    58  GLN58       0.0908
     45  CD        -5.5630  -42.3670   -4.5200 C.2    58  GLN58       0.2608
     46  OE1       -5.1680  -42.7380   -5.6290 O.2    58  GLN58      -0.2717
     47  NE2       -6.6620  -42.8570   -3.9510 N.am   58  GLN58      -0.0878
     48  N         -3.1440  -36.6790   -4.4070 N.am   59  GLY59      -0.1955
     49  CA        -2.7320  -35.6110   -5.2930 C.3    59  GLY59       0.1869
     50  C         -3.5450  -35.4150   -6.5650 C.2    59  GLY59       0.2309
     51  O         -3.0190  -34.9080   -7.5800 O.2    59  GLY59      -0.2863
     52  N          6.4390  -27.8080    0.9800 N.3   378  LEU378     -0.1231
     53  CA         6.6080  -27.8820   -0.4590 C.3   378  LEU378      0.1693
     54  C          6.8490  -29.3120   -0.8490 C.2   378  LEU378      0.2592
     55  O          6.2210  -29.8010   -1.7910 O.2   378  LEU378     -0.2718
     56  CB         7.7860  -27.0390   -0.9230 C.3   378  LEU378      0.0284
     57  CG         7.4120  -25.8610   -1.8300 C.3   378  LEU378      0.0019
     58  CD1        8.6790  -25.3370   -2.5140 C.3   378  LEU378      0.0001
     59  CD2        6.3740  -26.3010   -2.8700 C.3   378  LEU378      0.0001
     60  N          7.7480  -29.9880   -0.1320 N.am  379  ASN379     -0.1960
     61  CA         8.0430  -31.3840   -0.4500 C.3   379  ASN379      0.1819
     62  C          6.9660  -32.3270    0.0310 C.2   379  ASN379      0.2622
     63  O          7.2490  -33.4740    0.3660 O.2   379  ASN379     -0.2715
     64  CB         9.3810  -31.8120    0.1350 C.3   379  ASN379      0.1195
     65  CG         9.4970  -31.4650    1.5750 C.2   379  ASN379      0.2630
     66  OD1        9.3440  -30.2980    1.9420 O.2   379  ASN379     -0.2716
     67  ND2        9.7680  -32.4600    2.4160 N.am  379  ASN379     -0.0877
     68  N          5.7330  -31.8310    0.0630 N.am  380  SER380     -0.1950
     69  CA         4.5620  -32.6040    0.4500 C.3   380  SER380      0.1924
     70  C          4.7450  -33.4720    1.7090 C.2   380  SER380      0.2314
     71  O          4.8860  -34.6860    1.6310 O.2   380  SER380     -0.2863
     72  CB         4.1120  -33.4790   -0.7380 C.3   380  SER380      0.2116
     73  OG         3.9280  -32.7170   -1.9250 O.3   380  SER380     -0.2180
     74  N          2.9900  -38.0900    3.7880 N.3   392  ASN392     -0.1225
     75  CA         3.1900  -36.9780    2.8810 C.3   392  ASN392      0.1785
     76  C          1.8430  -36.6860    2.2450 C.2   392  ASN392      0.2597
     77  O          1.1860  -37.5820    1.7120 O.2   392  ASN392     -0.2718
     78  CB         4.2600  -37.2810    1.8200 C.3   392  ASN392      0.1169
     79  CG         3.7940  -38.2390    0.7670 C.2   392  ASN392      0.2627
     80  OD1        3.2420  -39.2730    1.0940 O.2   392  ASN392     -0.2716
     81  ND2        4.0230  -37.9120   -0.5060 N.am  392  ASN392     -0.0877
     82  N          1.4220  -35.4330    2.3310 N.am  393  PHE393     -0.1962
     83  CA         0.1400  -35.0420    1.7930 C.3   393  PHE393      0.1771
     84  C         -0.0320  -33.5480    1.8500 C.2   393  PHE393      0.2619
     85  O          0.4040  -32.9030    2.7950 O.2   393  PHE393     -0.2715
     86  CB        -0.9800  -35.7400    2.5890 C.3   393  PHE393      0.0574
     87  CG        -2.2530  -34.9420    2.7060 C.ar  393  PHE393     -0.0200
     88  CD1       -2.3880  -33.9700    3.6710 C.ar  393  PHE393     -0.0042
     89  CD2       -3.3280  -35.1790    1.8560 C.ar  393  PHE393     -0.0042
     90  CE1       -3.5730  -33.2420    3.7960 C.ar  393  PHE393     -0.0003
     91  CE2       -4.5180  -34.4490    1.9780 C.ar  393  PHE393     -0.0003
     92  CZ        -4.6340  -33.4800    2.9520 C.ar  393  PHE393     -0.0000
     93  N         -0.6530  -33.0030    0.8220 N.am  394  VAL394     -0.1977
     94  CA        -0.9400  -31.5920    0.7610 C.3   394  VAL394      0.1596
     95  C         -2.3040  -31.5380    0.1090 C.2   394  VAL394      0.2287
     96  O         -2.5210  -32.0990   -0.9730 O.2   394  VAL394     -0.2864
     97  CB         0.1070  -30.8430   -0.0700 C.3   394  VAL394      0.0276
     98  CG1       -0.2570  -29.3550   -0.1360 C.3   394  VAL394      0.0022
     99  CG2        1.4880  -31.0240    0.5480 C.3   394  VAL394      0.0022
    100  N         -2.8090  -26.8260   -2.9570 N.3   399  TRP399     -0.1241
    101  CA        -2.1680  -26.8290   -4.2750 C.3   399  TRP399      0.1605
    102  C         -2.9130  -25.9210   -5.2290 C.2   399  TRP399      0.2264
    103  O         -2.3090  -25.0790   -5.8910 O.2   399  TRP399     -0.2867
    104  CB        -2.1320  -28.2350   -4.8540 C.3   399  TRP399      0.0550
    105  CG        -1.1030  -29.0910   -4.2610 C.ar  399  TRP399      0.0003
    106  CD1       -1.2960  -30.3000   -3.6790 C.ar  399  TRP399      0.0946
    107  CD2        0.3050  -28.8380   -4.2020 C.ar  399  TRP399      0.0152
    108  NE1       -0.0970  -30.8240   -3.2590 N.ar  399  TRP399     -0.2442
    109  CE2        0.9020  -29.9430   -3.5680 C.ar  399  TRP399      0.0810
    110  CE3        1.1180  -27.7880   -4.6250 C.ar  399  TRP399      0.0012
    111  CZ2        2.2740  -30.0280   -3.3440 C.ar  399  TRP399      0.0191
    112  CZ3        2.4890  -27.8760   -4.4040 C.ar  399  TRP399      0.0001
    113  CH2        3.0510  -28.9870   -3.7700 C.ar  399  TRP399      0.0015
    114  N         -3.1300  -22.1510   -4.0950 N.3   402  THR402     -0.1203
    115  CA        -1.7570  -21.6260   -4.1310 C.3   402  THR402      0.1994
    116  C         -1.2740  -21.2520   -5.5200 C.2   402  THR402      0.2618
    117  O         -0.7870  -20.1520   -5.7510 O.2   402  THR402     -0.2717
    118  CB        -0.7370  -22.6270   -3.5300 C.3   402  THR402      0.1784
    119  OG1       -0.2260  -22.1020   -2.3070 O.3   402  THR402     -0.2211
    120  CG2        0.4520  -22.8370   -4.4400 C.3   402  THR402      0.0376
    121  N         -1.3880  -22.1980   -6.4360 N.am  403  SER403     -0.1951
    122  CA        -0.9680  -22.0000   -7.8110 C.3   403  SER403      0.1924
    123  C         -1.6960  -20.8190   -8.4340 C.2   403  SER403      0.2314
    124  O         -1.0690  -19.9280   -9.0080 O.2   403  SER403     -0.2863
    125  CB        -1.2760  -23.2510   -8.6290 C.3   403  SER403      0.2116
    126  OG        -2.6760  -23.4850   -8.6710 O.3   403  SER403     -0.2180
    127  N         -0.7030  -17.2570   -7.6180 N.3   406  VAL406     -0.1245
    128  CA         0.5170  -16.8530   -8.3150 C.3   406  VAL406      0.1561
    129  C          0.1170  -16.4300   -9.7270 C.2   406  VAL406      0.2260
    130  O          0.4170  -15.3040  -10.1690 O.2   406  VAL406     -0.2867
    131  CB         1.5290  -18.0080   -8.4360 C.3   406  VAL406      0.0252
    132  CG1        2.7490  -17.5390   -9.1730 C.3   406  VAL406      0.0019
    133  CG2        1.9220  -18.5030   -7.0800 C.3   406  VAL406      0.0019
@<TRIPOS>BOND
     1     1     2    1
     2     2     5    1
     3     2     3    1
     4     5     6    1
     5     3     4    2
     6     6     7    1
     7     7     8    1
     8   130   129    2
     9   129   128    1
    10   132   131    1
    11   124   123    2
    12   126   125    1
    13   125   122    1
    14   131   128    1
    15   131   133    1
    16   123   122    1
    17   128   127    1
    18   122   121    1
    19    51    50    2
    20    50    49    1
    21   121   116   am
    22    42    41    2
    23   103   102    2
    24   117   116    2
    25    46    45    2
    26   116   115    1
    27    49    48    1
    28   102   101    1
    29   104   101    1
    30   104   105    1
    31    41    48   am
    32    41    40    1
    33   110   112   ar
    34   110   107   ar
    35    43    40    1
    36    43    44    1
    37    45    47   am
    38    45    44    1
    39   120   118    1
    40   112   113   ar
    41   101   100    1
    42   105   107   ar
    43   105   106   ar
    44   107   109   ar
    45   115   114    1
    46   115   118    1
    47    40    39    1
    48   113   111   ar
    49   106   108   ar
    50   109   111   ar
    51   109   108   ar
    52   118   119    1
    53    59    57    1
    54    39    32   am
    55    58    57    1
    56    12    11    2
    57    18    19    1
    58    73    72    1
    59    57    56    1
    60    55    54    2
    61    19    20    1
    62    19    22    1
    63     9    10    1
    64    32    33    2
    65    32    31    1
    66    13    10    1
    67    13    14    1
    68    20    21    2
    69    20    30   am
    70    11    10    1
    71    96    95    2
    72    56    53    1
    73    54    53    1
    74    54    60   am
    75    15    14    1
    76    15    16    1
    77    30    31    1
    78    72    69    1
    79    22    23    1
    80    81    79   am
    81    53    52    1
    82    61    60    1
    83    61    62    1
    84    61    64    1
    85    31    34    1
    86    17    16    1
    87    98    97    1
    88    97    99    1
    89    97    94    1
    90    62    68   am
    91    62    63    2
    92    68    69    1
    93    95    94    1
    94    64    65    1
    95    69    70    1
    96    23    25   ar
    97    23    24   ar
    98    25    27   ar
    99    34    35    1
   100    94    93    1
   101    79    80    2
   102    79    78    1
   103    93    84   am
   104    24    26   ar
   105    65    66    2
   106    65    67   am
   107    71    70    2
   108    27    28   ar
   109    77    76    2
   110    83    84    1
   111    83    82    1
   112    83    86    1
   113    78    75    1
   114    84    85    2
   115    89    91   ar
   116    89    87   ar
   117    91    92   ar
   118    35    36    1
   119    76    82   am
   120    76    75    1
   121    86    87    1
   122    26    28   ar
   123    28    29    1
   124    87    88   ar
   125    37    36   ar
   126    75    74    1
   127    36    38   ar
   128    92    90   ar
   129    88    90   ar
