@<TRIPOS>MOLECULE
tmp/2axtU02.pdb
 111 108 0 0 0
SMALL
GASTEIGER

@<TRIPOS>ATOM
      1  N         -3.1890  -17.0210  -35.7570 N.3    24  LEU24      -0.1245
      2  CA        -4.2950  -17.9320  -35.5580 C.3    24  LEU24       0.1561
      3  C         -3.6770  -19.2480  -35.1120 C.2    24  LEU24       0.2260
      4  O         -4.1280  -19.8620  -34.1490 O.2    24  LEU24      -0.2867
      5  CB        -5.0640  -18.1410  -36.8570 C.3    24  LEU24       0.0270
      6  CG        -6.2120  -19.1470  -36.7030 C.3    24  LEU24       0.0019
      7  CD1       -7.2780  -18.4780  -35.8100 C.3    24  LEU24       0.0001
      8  CD2       -6.7760  -19.5880  -38.0850 C.3    24  LEU24       0.0001
      9  N         -4.2210  -21.4640  -32.0050 N.3    28  VAL28      -0.1245
     10  CA        -4.7050  -22.8390  -32.1630 C.3    28  VAL28       0.1561
     11  C         -3.7570  -23.8220  -31.5180 C.2    28  VAL28       0.2260
     12  O         -4.1710  -24.6120  -30.6800 O.2    28  VAL28      -0.2867
     13  CB        -4.8840  -23.2470  -33.6490 C.3    28  VAL28       0.0252
     14  CG1       -5.2770  -24.7500  -33.7490 C.3    28  VAL28       0.0019
     15  CG2       -5.9520  -22.3660  -34.3070 C.3    28  VAL28       0.0019
     16  N         -5.6520  -32.9320  -33.1250 N.3    98  VAL98      -0.1231
     17  CA        -6.4030  -32.1310  -34.0930 C.3    98  VAL98       0.1692
     18  C         -5.9320  -30.6740  -33.9930 C.2    98  VAL98       0.2591
     19  O         -5.2880  -30.1360  -34.8950 O.2    98  VAL98      -0.2718
     20  CB        -7.9230  -32.1690  -33.7950 C.3    98  VAL98       0.0266
     21  CG1       -8.6610  -31.2770  -34.7760 C.3    98  VAL98       0.0020
     22  CG2       -8.4380  -33.5980  -33.8290 C.3    98  VAL98       0.0020
     23  N         -6.2710  -30.0450  -32.8860 N.am   99  LEU99      -0.1980
     24  CA        -5.8710  -28.6800  -32.6770 C.3    99  LEU99       0.1596
     25  C         -4.3880  -28.4910  -32.9720 C.2    99  LEU99       0.2287
     26  O         -4.0220  -27.4940  -33.5940 O.2    99  LEU99      -0.2864
     27  CB        -6.1430  -28.2940  -31.2460 C.3    99  LEU99       0.0297
     28  CG        -7.5960  -28.3550  -30.8590 C.3    99  LEU99       0.0022
     29  CD1       -7.7080  -28.0660  -29.3830 C.3    99  LEU99       0.0001
     30  CD2       -8.3670  -27.3420  -31.6690 C.3    99  LEU99       0.0001
     31  N         -2.4630  -30.0930  -34.9880 N.3   101  PHE101     -0.1227
     32  CA        -2.2910  -30.1260  -36.4270 C.3   101  PHE101      0.1736
     33  C         -2.6450  -28.7400  -37.0060 C.2   101  PHE101      0.2596
     34  O         -1.9860  -28.2440  -37.9290 O.2   101  PHE101     -0.2718
     35  CB        -3.2290  -31.1920  -37.0210 C.3   101  PHE101      0.0547
     36  CG        -2.9370  -31.5420  -38.4620 C.ar  101  PHE101     -0.0202
     37  CD1       -1.8530  -32.3710  -38.7850 C.ar  101  PHE101     -0.0042
     38  CD2       -3.7220  -31.0250  -39.4880 C.ar  101  PHE101     -0.0042
     39  CE1       -1.5540  -32.6740  -40.0990 C.ar  101  PHE101     -0.0003
     40  CE2       -3.4320  -31.3220  -40.8060 C.ar  101  PHE101     -0.0003
     41  CZ        -2.3410  -32.1500  -41.1150 C.ar  101  PHE101     -0.0000
     42  N         -3.6870  -28.1230  -36.4630 N.am  102  GLY102     -0.1957
     43  CA        -4.1020  -26.8260  -36.9650 C.3   102  GLY102      0.1869
     44  C         -3.0690  -25.7630  -36.7230 C.2   102  GLY102      0.2309
     45  O         -2.6980  -25.0090  -37.6330 O.2   102  GLY102     -0.2863
     46  N          0.1470  -26.1940  -38.6720 N.3   105  TYR105     -0.1227
     47  CA        -0.2010  -25.8610  -40.0510 C.3   105  TYR105      0.1736
     48  C         -0.3740  -24.3430  -40.2680 C.2   105  TYR105      0.2595
     49  O          0.3580  -23.7300  -41.0580 O.2   105  TYR105     -0.2718
     50  CB        -1.4890  -26.5910  -40.4630 C.3   105  TYR105      0.0548
     51  CG        -2.1460  -25.9420  -41.6570 C.ar  105  TYR105     -0.0200
     52  CD1       -1.5090  -25.9320  -42.8950 C.ar  105  TYR105     -0.0009
     53  CD2       -3.3420  -25.2160  -41.5200 C.ar  105  TYR105     -0.0009
     54  CE1       -2.0400  -25.1970  -43.9690 C.ar  105  TYR105      0.0417
     55  CE2       -3.8760  -24.4850  -42.5780 C.ar  105  TYR105      0.0417
     56  CZ        -3.2260  -24.4710  -43.7960 C.ar  105  TYR105      0.1957
     57  OH        -3.7220  -23.7040  -44.8290 O.3   105  TYR105     -0.2866
     58  N         -1.3430  -23.7550  -39.5740 N.am  106  HIS106     -0.1975
     59  CA        -1.6440  -22.3360  -39.6920 C.3   106  HIS106      0.1656
     60  C         -0.5350  -21.3420  -39.3640 C.2   106  HIS106      0.2291
     61  O         -0.6720  -20.1450  -39.6510 O.2   106  HIS106     -0.2864
     62  CB        -2.8250  -22.0150  -38.8200 C.3   106  HIS106      0.0771
     63  CG        -4.1210  -22.0160  -39.5480 C.ar  106  HIS106      0.0820
     64  ND1       -4.3640  -21.1910  -40.6260 N.ar  106  HIS106     -0.2267
     65  CD2       -5.2680  -22.6960  -39.3200 C.ar  106  HIS106      0.1154
     66  CE1       -5.6110  -21.3610  -41.0270 C.ar  106  HIS106      0.1986
     67  NE2       -6.1820  -22.2670  -40.2510 N.ar  106  HIS106     -0.2212
     68  N         -1.5730  -19.6130  -44.9230 N.3   111  PRO111     -0.2116
     69  CA        -1.2620  -18.1960  -45.2070 C.3   111  PRO111      0.1372
     70  C         -0.9290  -17.4470  -43.9340 C.2   111  PRO111      0.2244
     71  O         -1.5710  -17.6810  -42.9050 O.2   111  PRO111     -0.2868
     72  CB        -2.5440  -17.6740  -45.8560 C.3   111  PRO111      0.0268
     73  CG        -3.6270  -18.5470  -45.2240 C.3   111  PRO111      0.0207
     74  CD        -2.9930  -19.9240  -45.1970 C.3   111  PRO111      0.0892
     75  N         -4.7650  -13.3660  -43.0660 N.3   114  LEU114     -0.1245
     76  CA        -6.0660  -13.8120  -43.5630 C.3   114  LEU114      0.1561
     77  C         -6.6430  -12.7630  -44.5020 C.2   114  LEU114      0.2260
     78  O         -7.7470  -12.9340  -45.0440 O.2   114  LEU114     -0.2867
     79  CB        -7.0280  -14.1110  -42.3960 C.3   114  LEU114      0.0270
     80  CG        -6.5480  -15.2300  -41.4330 C.3   114  LEU114      0.0019
     81  CD1       -7.6740  -15.5880  -40.4690 C.3   114  LEU114      0.0001
     82  CD2       -6.0800  -16.4710  -42.2280 C.3   114  LEU114      0.0001
     83  N         -6.9200  -14.2220  -48.1020 N.3   117  TYR117     -0.1227
     84  CA        -7.1850  -15.6730  -48.0160 C.3   117  TYR117      0.1736
     85  C         -8.6270  -15.9680  -47.5970 C.2   117  TYR117      0.2596
     86  O         -9.0990  -17.1180  -47.6730 O.2   117  TYR117     -0.2718
     87  CB        -6.2220  -16.3440  -47.0330 C.3   117  TYR117      0.0548
     88  CG        -6.4620  -17.8450  -46.8650 C.ar  117  TYR117     -0.0200
     89  CD1       -6.1290  -18.7460  -47.8820 C.ar  117  TYR117     -0.0009
     90  CD2       -7.0180  -18.3550  -45.6870 C.ar  117  TYR117     -0.0009
     91  CE1       -6.3270  -20.1240  -47.7300 C.ar  117  TYR117      0.0417
     92  CE2       -7.2400  -19.7290  -45.5250 C.ar  117  TYR117      0.0417
     93  CZ        -6.8880  -20.6010  -46.5490 C.ar  117  TYR117      0.1957
     94  OH        -7.0700  -21.9520  -46.3680 O.3   117  TYR117     -0.2866
     95  N         -9.3030  -14.9110  -47.1620 N.am  118  SER118     -0.1952
     96  CA       -10.6930  -14.9820  -46.7370 C.3   118  SER118      0.1924
     97  C        -10.9820  -13.7040  -45.9790 C.2   118  SER118      0.2314
     98  O        -10.4420  -13.4770  -44.9010 O.2   118  SER118     -0.2863
     99  CB       -10.9270  -16.1990  -45.8340 C.3   118  SER118      0.2116
    100  OG       -10.1000  -16.1490  -44.6820 O.3   118  SER118     -0.2180
    101  N        -12.7010  -14.0920  -42.2340 N.3   121  PHE121     -0.1241
    102  CA       -11.8170  -14.5210  -41.1640 C.3   121  PHE121      0.1605
    103  C        -10.7280  -13.4850  -40.9030 C.2   121  PHE121      0.2264
    104  O        -10.2250  -13.3780  -39.7840 O.2   121  PHE121     -0.2867
    105  CB       -11.2210  -15.8710  -41.5170 C.3   121  PHE121      0.0534
    106  CG       -12.2280  -16.9590  -41.5040 C.ar  121  PHE121     -0.0203
    107  CD1      -13.3700  -16.8580  -42.2860 C.ar  121  PHE121     -0.0042
    108  CD2      -12.0770  -18.0570  -40.6700 C.ar  121  PHE121     -0.0042
    109  CE1      -14.3530  -17.8340  -42.2360 C.ar  121  PHE121     -0.0003
    110  CE2      -13.0530  -19.0460  -40.6080 C.ar  121  PHE121     -0.0003
    111  CZ       -14.1960  -18.9320  -41.3950 C.ar  121  PHE121     -0.0000
@<TRIPOS>BOND
     1    83    84    1
     2    84    85    1
     3    84    87    1
     4    89    91   ar
     5    89    88   ar
     6    91    93   ar
     7    86    85    2
     8    85    95   am
     9    95    96    1
    10    87    88    1
    11    88    90   ar
    12    96    97    1
    13    96    99    1
    14    93    94    1
    15    93    92   ar
    16    97    98    2
    17    72    73    1
    18    72    69    1
    19    99   100    1
    20    90    92   ar
    21    73    74    1
    22    69    68    1
    23    69    70    1
    24    74    68    1
    25    78    77    2
    26    57    56    1
    27    77    76    1
    28    54    56   ar
    29    54    52   ar
    30    70    71    2
    31    56    55   ar
    32    76    75    1
    33    76    79    1
    34    52    51   ar
    35    55    53   ar
    36    79    80    1
    37   107   109   ar
    38   107   106   ar
    39   109   111   ar
    40   101   102    1
    41    82    80    1
    42    51    53   ar
    43    51    50    1
    44   105   106    1
    45   105   102    1
    46   106   108   ar
    47    80    81    1
    48   111   110   ar
    49   102   103    1
    50    41    40   ar
    51    41    39   ar
    52    49    48    2
    53    66    64   ar
    54    66    67   ar
    55   103   104    2
    56    40    38   ar
    57   108   110   ar
    58    64    63   ar
    59    50    47    1
    60    48    47    1
    61    48    58   am
    62    67    65   ar
    63    39    37   ar
    64    47    46    1
    65    59    58    1
    66    59    60    1
    67    59    62    1
    68    61    60    2
    69    63    65   ar
    70    63    62    1
    71    38    36   ar
    72    37    36   ar
    73    36    35    1
    74     8     6    1
    75    34    33    2
    76    45    44    2
    77    35    32    1
    78    33    42   am
    79    33    32    1
    80    43    44    1
    81    43    42    1
    82     5     6    1
    83     5     2    1
    84     6     7    1
    85    32    31    1
    86     1     2    1
    87     2     3    1
    88     3     4    2
    89    19    18    2
    90    21    20    1
    91    15    13    1
    92    17    18    1
    93    17    20    1
    94    17    16    1
    95    18    23   am
    96    22    20    1
    97    14    13    1
    98    13    10    1
    99    26    25    2
   100    25    24    1
   101    23    24    1
   102    24    27    1
   103    10     9    1
   104    10    11    1
   105    30    28    1
   106    11    12    2
   107    27    28    1
   108    28    29    1
