@<TRIPOS>MOLECULE
tmp/2axtA17.pdb
 166 163 0 0 0
SMALL
GASTEIGER

@<TRIPOS>ATOM
      1  N         21.5150   59.1180   38.8560 N.3   202  PHE202     -0.1241
      2  CA        22.2600   59.9640   37.9230 C.3   202  PHE202      0.1605
      3  C         22.8420   59.2000   36.7300 C.2   202  PHE202      0.2264
      4  O         23.0110   59.7530   35.6570 O.2   202  PHE202     -0.2867
      5  CB        23.3730   60.6870   38.6710 C.3   202  PHE202      0.0534
      6  CG        22.8790   61.5570   39.7780 C.ar  202  PHE202     -0.0203
      7  CD1       23.6680   61.7980   40.8890 C.ar  202  PHE202     -0.0042
      8  CD2       21.6300   62.1420   39.7080 C.ar  202  PHE202     -0.0042
      9  CE1       23.2210   62.6050   41.9070 C.ar  202  PHE202     -0.0003
     10  CE2       21.1720   62.9530   40.7270 C.ar  202  PHE202     -0.0003
     11  CZ        21.9670   63.1860   41.8260 C.ar  202  PHE202     -0.0000
     12  N         20.2340   59.3450   34.4330 N.3   205  MET205     -0.1230
     13  CA        20.1310   60.6990   33.8970 C.3   205  MET205      0.1702
     14  C         21.1920   60.9120   32.8470 C.2   205  MET205      0.2592
     15  O         20.8720   61.0660   31.6830 O.2   205  MET205     -0.2718
     16  CB        20.3060   61.7530   34.9800 C.3   205  MET205      0.0401
     17  CG        19.0660   61.9700   35.8150 C.3   205  MET205      0.0596
     18  SD        17.6380   62.4440   34.8090 S.3   205  MET205     -0.1393
     19  CE        17.6350   64.1690   35.2190 C.3   205  MET205      0.0692
     20  N         22.4530   60.9070   33.2500 N.am  206  HIS206     -0.1976
     21  CA        23.5070   61.1160   32.2790 C.3   206  HIS206      0.1656
     22  C         23.2520   60.2420   31.0630 C.2   206  HIS206      0.2291
     23  O         23.0340   60.7490   29.9630 O.2   206  HIS206     -0.2864
     24  CB        24.9080   60.8210   32.8410 C.3   206  HIS206      0.0771
     25  CG        26.0170   61.2860   31.9320 C.ar  206  HIS206      0.0820
     26  ND1       26.1560   62.6020   31.5380 N.ar  206  HIS206     -0.2267
     27  CD2       26.9880   60.6020   31.2790 C.ar  206  HIS206      0.1154
     28  CE1       27.1570   62.7050   30.6810 C.ar  206  HIS206      0.1986
     29  NE2       27.6790   61.5070   30.5060 N.ar  206  HIS206     -0.2212
     30  N         19.8220   61.5980   29.1110 N.3   209  LEU209     -0.1231
     31  CA        20.0240   62.8700   28.4140 C.3   209  LEU209      0.1693
     32  C         20.9280   62.8130   27.1850 C.2   209  LEU209      0.2591
     33  O         20.5150   63.1930   26.0870 O.2   209  LEU209     -0.2718
     34  CB        20.5460   63.9070   29.4090 C.3   209  LEU209      0.0284
     35  CG        19.5360   64.1660   30.5360 C.3   209  LEU209      0.0019
     36  CD1       20.0960   65.1570   31.5280 C.3   209  LEU209      0.0001
     37  CD2       18.2190   64.6810   29.9430 C.3   209  LEU209      0.0001
     38  N         22.1590   62.3500   27.3740 N.am  210  VAL210     -0.1980
     39  CA        23.0920   62.2290   26.2660 C.3   210  VAL210      0.1595
     40  C         22.4490   61.4620   25.1170 C.2   210  VAL210      0.2287
     41  O         22.4000   61.9530   23.9880 O.2   210  VAL210     -0.2864
     42  CB        24.3720   61.4900   26.6960 C.3   210  VAL210      0.0276
     43  CG1       25.1740   61.0500   25.4850 C.3   210  VAL210      0.0022
     44  CG2       25.2060   62.3920   27.5580 C.3   210  VAL210      0.0022
     45  N         27.1870   64.4280   20.3470 N.3   237  TYR237     -0.1241
     46  CA        25.8280   64.7870   20.7240 C.3   237  TYR237      0.1605
     47  C         25.7990   66.2450   21.1750 C.2   237  TYR237      0.2264
     48  O         26.8230   66.7780   21.6120 O.2   237  TYR237     -0.2867
     49  CB        25.3330   63.8990   21.8530 C.3   237  TYR237      0.0534
     50  CG        25.9870   64.2240   23.1660 C.ar  237  TYR237     -0.0201
     51  CD1       27.2700   63.7790   23.4440 C.ar  237  TYR237     -0.0009
     52  CD2       25.3320   64.9860   24.1310 C.ar  237  TYR237     -0.0009
     53  CE1       27.8910   64.0730   24.6500 C.ar  237  TYR237      0.0417
     54  CE2       25.9450   65.2900   25.3370 C.ar  237  TYR237      0.0417
     55  CZ        27.2300   64.8250   25.5880 C.ar  237  TYR237      0.1957
     56  OH        27.8740   65.0980   26.7790 O.3   237  TYR237     -0.2866
     57  N         25.4450   68.8110   23.6540 N.3   239  ILE239     -0.1245
     58  CA        25.4810   69.0930   25.0890 C.3   239  ILE239      0.1561
     59  C         24.6970   70.3490   25.4630 C.2   239  ILE239      0.2260
     60  O         24.5270   70.6770   26.6460 O.2   239  ILE239     -0.2867
     61  CB        26.9360   69.2800   25.5760 C.3   239  ILE239      0.0252
     62  CG1       27.8710   68.3070   24.8230 C.3   239  ILE239      0.0019
     63  CG2       26.9940   69.1080   27.1160 C.3   239  ILE239      0.0019
     64  CD1       29.3810   68.5410   25.0580 C.3   239  ILE239      0.0001
     65  N         20.8570   69.1500   25.1530 N.3   242  ALA242     -0.1231
     66  CA        20.6880   68.3360   26.3320 C.3   242  ALA242      0.1694
     67  C         20.2190   69.2340   27.4670 C.2   242  ALA242      0.2592
     68  O         19.1390   69.0380   28.0280 O.2   242  ALA242     -0.2718
     69  CB        22.0120   67.6960   26.6810 C.3   242  ALA242      0.0304
     70  N         21.0490   70.2220   27.7940 N.am  243  HIS243     -0.1976
     71  CA        20.7620   71.1890   28.8590 C.3   243  HIS243      0.1656
     72  C         19.5080   71.9870   28.5000 C.2   243  HIS243      0.2291
     73  O         18.7610   72.4190   29.3780 O.2   243  HIS243     -0.2864
     74  CB        21.9810   72.1180   29.0530 C.3   243  HIS243      0.0771
     75  CG        21.7090   73.3180   29.9120 C.ar  243  HIS243      0.0820
     76  ND1       21.0350   73.2430   31.1130 N.ar  243  HIS243     -0.2267
     77  CD2       22.0460   74.6210   29.7570 C.ar  243  HIS243      0.1154
     78  CE1       20.9650   74.4430   31.6620 C.ar  243  HIS243      0.1986
     79  NE2       21.5710   75.2970   30.8600 N.ar  243  HIS243     -0.2212
     80  N         16.7630   69.4240   29.8930 N.3   246  PHE246     -0.1241
     81  CA        16.8700   69.2010   31.3250 C.3   246  PHE246      0.1605
     82  C         16.6760   70.4810   32.1140 C.2   246  PHE246      0.2264
     83  O         16.0520   70.4690   33.1740 O.2   246  PHE246     -0.2867
     84  CB        18.2140   68.5890   31.6880 C.3   246  PHE246      0.0534
     85  CG        18.3350   68.2700   33.1400 C.ar  246  PHE246     -0.0203
     86  CD1       17.3620   67.4890   33.7730 C.ar  246  PHE246     -0.0042
     87  CD2       19.3920   68.7710   33.8940 C.ar  246  PHE246     -0.0042
     88  CE1       17.4410   67.2170   35.1390 C.ar  246  PHE246     -0.0003
     89  CE2       19.4820   68.5040   35.2630 C.ar  246  PHE246     -0.0003
     90  CZ        18.5020   67.7250   35.8840 C.ar  246  PHE246     -0.0000
     91  N         13.1800   71.0290   35.1270 N.3   250  ILE250     -0.1231
     92  CA        13.1320   71.5280   36.4990 C.3   250  ILE250      0.1692
     93  C         13.1290   73.0510   36.3910 C.2   250  ILE250      0.2592
     94  O         12.1230   73.7070   36.6860 O.2   250  ILE250     -0.2718
     95  CB        14.3770   71.0380   37.2940 C.3   250  ILE250      0.0266
     96  CG1       14.5700   69.5320   37.0360 C.3   250  ILE250      0.0019
     97  CG2       14.2200   71.3210   38.8040 C.3   250  ILE250      0.0020
     98  CD1       15.8710   68.9590   37.5810 C.3   250  ILE250      0.0001
     99  N         14.2740   73.5950   35.9820 N.am  251  PHE251     -0.1976
    100  CA        14.4720   75.0270   35.7400 C.3   251  PHE251      0.1639
    101  C         15.9350   75.2950   35.4420 C.2   251  PHE251      0.2290
    102  O         16.8210   74.7730   36.1140 O.2   251  PHE251     -0.2864
    103  CB        13.9250   75.9100   36.8850 C.3   251  PHE251      0.0560
    104  CG        14.7030   75.8460   38.1570 C.ar  251  PHE251     -0.0200
    105  CD1       15.9900   76.3700   38.2340 C.ar  251  PHE251     -0.0042
    106  CD2       14.1170   75.3200   39.3070 C.ar  251  PHE251     -0.0042
    107  CE1       16.6770   76.3740   39.4390 C.ar  251  PHE251     -0.0003
    108  CE2       14.7960   75.3180   40.5170 C.ar  251  PHE251     -0.0003
    109  CZ        16.0760   75.8470   40.5850 C.ar  251  PHE251     -0.0000
    110  N         18.9600   74.9630   37.6380 N.3   254  ALA254     -0.1231
    111  CA        18.8790   73.7260   38.3850 C.3   254  ALA254      0.1694
    112  C         19.3500   72.6700   37.4010 C.2   254  ALA254      0.2593
    113  O         18.8570   71.5360   37.4020 O.2   254  ALA254     -0.2718
    114  CB        17.4430   73.4450   38.7940 C.3   254  ALA254      0.0304
    115  N         20.2980   73.0520   36.5460 N.am  255  SER255     -0.1938
    116  CA        20.8340   72.1350   35.5380 C.3   255  SER255      0.2055
    117  C         22.3080   72.3120   35.2200 C.2   255  SER255      0.2643
    118  O         22.9330   73.2540   35.6880 O.2   255  SER255     -0.2714
    119  CB        20.0620   72.2800   34.2420 C.3   255  SER255      0.2130
    120  OG        20.8160   71.7050   33.1990 O.3   255  SER255     -0.2179
    121  N         22.8550   71.3940   34.4250 N.am  256  PHE256     -0.1959
    122  CA        24.2560   71.4580   34.0170 C.3   256  PHE256      0.1771
    123  C         24.4020   72.0430   32.6190 C.2   256  PHE256      0.2619
    124  O         23.4080   72.3320   31.9480 O.2   256  PHE256     -0.2715
    125  CB        24.9000   70.0700   34.0630 C.3   256  PHE256      0.0574
    126  CG        25.4290   69.7160   35.4110 C.ar  256  PHE256     -0.0200
    127  CD1       26.4710   70.4520   35.9680 C.ar  256  PHE256     -0.0042
    128  CD2       24.8460   68.7060   36.1610 C.ar  256  PHE256     -0.0042
    129  CE1       26.9320   70.1980   37.2720 C.ar  256  PHE256     -0.0003
    130  CE2       25.2910   68.4300   37.4700 C.ar  256  PHE256     -0.0003
    131  CZ        26.3380   69.1840   38.0260 C.ar  256  PHE256     -0.0000
    132  N         25.6440   72.2300   32.1860 N.am  257  ASN257     -0.1972
    133  CA        25.9260   72.7660   30.8470 C.3   257  ASN257      0.1688
    134  C         27.4410   72.6950   30.6620 C.2   257  ASN257      0.2292
    135  O         27.9690   73.0090   29.5990 O.2   257  ASN257     -0.2864
    136  CB        25.4770   74.2120   30.7470 C.3   257  ASN257      0.1181
    137  CG        26.3770   75.1370   31.5410 C.2   257  ASN257      0.2629
    138  OD1       26.4220   75.0890   32.7770 O.2   257  ASN257     -0.2716
    139  ND2       27.1190   75.9710   30.8340 N.am  257  ASN257     -0.0877
    140  N         29.8250   68.6580   35.1820 N.3   262  LEU262     -0.1245
    141  CA        28.7870   67.6290   35.2570 C.3   262  LEU262      0.1561
    142  C         29.4070   66.2600   35.5370 C.2   262  LEU262      0.2260
    143  O         28.9500   65.5390   36.4250 O.2   262  LEU262     -0.2867
    144  CB        28.0110   67.5520   33.9420 C.3   262  LEU262      0.0270
    145  CG        27.4710   66.1540   33.5760 C.3   262  LEU262      0.0019
    146  CD1       26.3960   65.7290   34.5520 C.3   262  LEU262      0.0001
    147  CD2       26.9140   66.1660   32.1690 C.3   262  LEU262      0.0001
    148  N         30.6400   65.8340   39.1300 N.3   265  PHE265     -0.1227
    149  CA        29.5490   65.5990   40.0590 C.3   265  PHE265      0.1736
    150  C         29.1220   64.1450   39.9540 C.2   265  PHE265      0.2595
    151  O         28.5030   63.6090   40.8660 O.2   265  PHE265     -0.2718
    152  CB        28.3640   66.4740   39.7250 C.3   265  PHE265      0.0547
    153  CG        27.1610   66.2030   40.5770 C.ar  265  PHE265     -0.0202
    154  CD1       27.1500   66.5610   41.9280 C.ar  265  PHE265     -0.0042
    155  CD2       26.0120   65.6400   40.0140 C.ar  265  PHE265     -0.0042
    156  CE1       26.0050   66.3730   42.7100 C.ar  265  PHE265     -0.0003
    157  CE2       24.8630   65.4460   40.7830 C.ar  265  PHE265     -0.0003
    158  CZ        24.8570   65.8160   42.1360 C.ar  265  PHE265     -0.0000
    159  N         29.4310   63.5070   38.8380 N.am  266  LEU266     -0.1980
    160  CA        29.0770   62.1120   38.6860 C.3   266  LEU266      0.1596
    161  C         30.0270   61.2210   39.4570 C.2   266  LEU266      0.2287
    162  O         29.6220   60.2200   40.0360 O.2   266  LEU266     -0.2864
    163  CB        29.1260   61.6950   37.2310 C.3   266  LEU266      0.0297
    164  CG        28.1030   62.3420   36.3350 C.3   266  LEU266      0.0022
    165  CD1       28.1560   61.6660   34.9940 C.3   266  LEU266      0.0001
    166  CD2       26.7340   62.2120   36.9660 C.3   266  LEU266      0.0001
@<TRIPOS>BOND
     1    45    46    1
     2    46    47    1
     3    46    49    1
     4    47    48    2
     5    49    50    1
     6    50    51   ar
     7    50    52   ar
     8    51    53   ar
     9    57    58    1
    10    41    40    2
    11    52    54   ar
    12    53    55   ar
    13    62    64    1
    14    62    61    1
    15    58    59    1
    16    58    61    1
    17    40    39    1
    18    65    66    1
    19    54    55   ar
    20    59    60    2
    21    43    42    1
    22    61    63    1
    23    55    56    1
    24    33    32    2
    25    39    42    1
    26    39    38    1
    27    66    69    1
    28    66    67    1
    29    42    44    1
    30    32    38   am
    31    32    31    1
    32    67    70   am
    33    67    68    2
    34    70    71    1
    35    31    30    1
    36    31    34    1
    37    72    71    1
    38    72    73    2
    39    71    74    1
    40    74    75    1
    41    34    35    1
    42   135   134    2
    43    77    75   ar
    44    77    79   ar
    45    80    81    1
    46    75    76   ar
    47    37    35    1
    48    23    22    2
    49    29    28   ar
    50    29    27   ar
    51    35    36    1
    52   134   133    1
    53    28    26   ar
    54   136   133    1
    55   136   137    1
    56   139   137   am
    57   133   132    1
    58    79    78   ar
    59    22    21    1
    60    76    78   ar
    61    27    25   ar
    62    81    84    1
    63    81    82    1
    64    26    25   ar
    65   137   138    2
    66    15    14    2
    67    84    85    1
    68    25    24    1
    69   124   123    2
    70    82    83    2
    71   147   145    1
    72   132   123   am
    73    21    24    1
    74    21    20    1
    75   123   122    1
    76    14    20   am
    77    14    13    1
    78    85    86   ar
    79    85    87   ar
    80   120   119    1
    81   145   144    1
    82   145   146    1
    83    86    88   ar
    84    87    89   ar
    85    13    12    1
    86    13    16    1
    87   144   141    1
    88   122   125    1
    89   122   121    1
    90   125   126    1
    91   119   116    1
    92   121   117   am
    93    18    19    1
    94    18    17    1
    95    16    17    1
    96   165   164    1
    97    91    92    1
    98    88    90   ar
    99   140   141    1
   100   117   116    1
   101   117   118    2
   102   141   142    1
   103    89    90   ar
   104   126   127   ar
   105   126   128   ar
   106   101   100    1
   107   101   102    2
   108   142   143    2
   109   116   115    1
   110     4     3    2
   111   100    99    1
   112   100   103    1
   113   127   129   ar
   114    99    93   am
   115   128   130   ar
   116   164   166    1
   117   164   163    1
   118    93    92    1
   119    93    94    2
   120    92    95    1
   121   115   112   am
   122     3     2    1
   123   103   104    1
   124    96    95    1
   125    96    98    1
   126   163   160    1
   127   129   131   ar
   128    95    97    1
   129   112   113    2
   130   112   111    1
   131   130   131   ar
   132   110   111    1
   133     2     5    1
   134     2     1    1
   135   104   105   ar
   136   104   106   ar
   137   105   107   ar
   138   111   114    1
   139     5     6    1
   140   160   159    1
   141   160   161    1
   142   159   150   am
   143   148   149    1
   144   106   108   ar
   145   107   109   ar
   146   161   162    2
   147     8     6   ar
   148     8    10   ar
   149   152   149    1
   150   152   153    1
   151     6     7   ar
   152   150   149    1
   153   150   151    2
   154   155   153   ar
   155   155   157   ar
   156   108   109   ar
   157   153   154   ar
   158    10    11   ar
   159   157   158   ar
   160     7     9   ar
   161    11     9   ar
   162   154   156   ar
   163   158   156   ar
