@<TRIPOS>MOLECULE
tmp/2axtU14.pdb
 139 136 0 0 0
SMALL
GASTEIGER

@<TRIPOS>ATOM
      1  N         -2.7800  -31.3560  -22.1630 N.3    37  TRP37      -0.1241
      2  CA        -2.5930  -31.4540  -20.7170 C.3    37  TRP37       0.1605
      3  C         -3.8230  -32.0640  -20.0300 C.2    37  TRP37       0.2264
      4  O         -3.7270  -33.1320  -19.4010 O.2    37  TRP37      -0.2867
      5  CB        -2.3210  -30.0660  -20.0960 C.3    37  TRP37       0.0550
      6  CG        -2.0300  -30.1310  -18.6030 C.ar   37  TRP37       0.0003
      7  CD1       -0.8600  -30.5580  -18.0020 C.ar   37  TRP37       0.0946
      8  CD2       -2.9540  -29.8850  -17.5340 C.ar   37  TRP37       0.0152
      9  NE1       -1.0100  -30.6000  -16.6360 N.ar   37  TRP37      -0.2442
     10  CE2       -2.2820  -30.1930  -16.3200 C.ar   37  TRP37       0.0810
     11  CE3       -4.2890  -29.4400  -17.4810 C.ar   37  TRP37       0.0012
     12  CZ2       -2.9040  -30.0700  -15.0720 C.ar   37  TRP37       0.0191
     13  CZ3       -4.9060  -29.3210  -16.2400 C.ar   37  TRP37       0.0001
     14  CH2       -4.2140  -29.6340  -15.0540 C.ar   37  TRP37       0.0015
     15  N         -2.7110  -35.5130  -18.3850 N.3    41  MET41      -0.1245
     16  CA        -2.6720  -35.5360  -16.9130 C.3    41  MET41       0.1570
     17  C         -3.7800  -36.3920  -16.2670 C.2    41  MET41       0.2261
     18  O         -3.5240  -37.0690  -15.2650 O.2    41  MET41      -0.2867
     19  CB        -2.7270  -34.0960  -16.3620 C.3    41  MET41       0.0387
     20  CG        -2.5660  -33.9900  -14.8380 C.3    41  MET41       0.0595
     21  SD        -0.8490  -34.0830  -14.1950 S.3    41  MET41      -0.1393
     22  CE        -0.9010  -32.7600  -12.9640 C.3    41  MET41       0.0692
     23  N         -2.6310  -39.6520  -16.1500 N.3    44  PHE44      -0.1241
     24  CA        -1.5550  -39.7690  -15.1880 C.3    44  PHE44       0.1605
     25  C         -2.1820  -39.9490  -13.8250 C.2    44  PHE44       0.2264
     26  O         -1.7060  -40.7280  -12.9930 O.2    44  PHE44      -0.2867
     27  CB        -0.6860  -38.5220  -15.1880 C.3    44  PHE44       0.0534
     28  CG         0.4970  -38.6180  -14.2540 C.ar   44  PHE44      -0.0203
     29  CD1        1.4760  -39.5960  -14.4360 C.ar   44  PHE44      -0.0042
     30  CD2        0.6130  -37.7590  -13.1750 C.ar   44  PHE44      -0.0042
     31  CE1        2.5400  -39.7090  -13.5510 C.ar   44  PHE44      -0.0003
     32  CE2        1.6700  -37.8720  -12.2950 C.ar   44  PHE44      -0.0003
     33  CZ         2.6340  -38.8470  -12.4790 C.ar   44  PHE44      -0.0000
     34  N         -2.6100  -43.7730  -11.4400 N.3    48  HIS48      -0.1241
     35  CA        -2.1440  -43.8480  -10.0680 C.3    48  HIS48       0.1621
     36  C         -3.3200  -43.9520   -9.1280 C.2    48  HIS48       0.2264
     37  O         -3.2350  -44.5850   -8.0740 O.2    48  HIS48      -0.2867
     38  CB        -1.3290  -42.5920   -9.7400 C.3    48  HIS48       0.0745
     39  CG        -0.1080  -42.4410  -10.5930 C.ar   48  HIS48       0.0817
     40  ND1       -0.0940  -42.7520  -11.9390 N.ar   48  HIS48      -0.2268
     41  CD2        1.1500  -42.0420  -10.2880 C.ar   48  HIS48       0.1154
     42  CE1        1.1190  -42.5560  -12.4220 C.ar   48  HIS48       0.1986
     43  NE2        1.8930  -42.1250  -11.4410 N.ar   48  HIS48      -0.2212
     44  N         -4.3930  -38.5320   -2.6580 N.3    58  GLN58      -0.1231
     45  CA        -3.6480  -39.0120   -3.8250 C.3    58  GLN58       0.1698
     46  C         -3.2320  -37.9300   -4.8440 C.2    58  GLN58       0.2593
     47  O         -3.0080  -38.2380   -6.0070 O.2    58  GLN58      -0.2718
     48  CB        -4.4590  -40.0930   -4.5480 C.3    58  GLN58       0.0381
     49  CG        -4.7920  -41.3170   -3.7170 C.3    58  GLN58       0.0905
     50  CD        -5.5630  -42.3670   -4.5200 C.2    58  GLN58       0.2608
     51  OE1       -5.1680  -42.7380   -5.6290 O.2    58  GLN58      -0.2717
     52  NE2       -6.6620  -42.8570   -3.9510 N.am   58  GLN58      -0.0878
     53  N         -3.1440  -36.6790   -4.4070 N.am   59  GLY59      -0.1942
     54  CA        -2.7320  -35.6110   -5.2930 C.3    59  GLY59       0.2014
     55  C         -3.5450  -35.4150   -6.5650 C.2    59  GLY59       0.2639
     56  O         -3.0190  -34.9080   -7.5800 O.2    59  GLY59      -0.2714
     57  N         -4.8190  -35.7960   -6.5300 N.am   60  LEU60      -0.1963
     58  CA        -5.6490  -35.6310   -7.7170 C.3    60  LEU60       0.1728
     59  C         -6.2860  -34.2440   -7.7550 C.2    60  LEU60       0.2616
     60  O         -6.6200  -33.6950   -6.7210 O.2    60  LEU60      -0.2715
     61  CB        -6.7430  -36.7170   -7.7610 C.3    60  LEU60       0.0311
     62  CG        -6.3920  -38.1900   -8.0350 C.3    60  LEU60       0.0022
     63  CD1       -5.0270  -38.3210   -8.6040 C.3    60  LEU60       0.0001
     64  CD2       -6.4700  -38.9680   -6.7830 C.3    60  LEU60       0.0001
     65  N         -6.4300  -33.6730   -8.9410 N.am   61  ILE61      -0.1977
     66  CA        -7.0730  -32.3740   -9.0660 C.3    61  ILE61       0.1596
     67  C         -8.0040  -32.2950  -10.2920 C.2    61  ILE61       0.2287
     68  O         -8.9070  -31.4340  -10.3620 O.2    61  ILE61      -0.2864
     69  CB        -6.0580  -31.2260   -9.1300 C.3    61  ILE61       0.0276
     70  CG1       -5.1590  -31.3780  -10.3470 C.3    61  ILE61       0.0022
     71  CG2       -5.2500  -31.2070   -7.8730 C.3    61  ILE61       0.0022
     72  CD1       -4.1490  -30.2560  -10.4770 C.3    61  ILE61       0.0001
     73  N          6.4390  -27.8080    0.9800 N.3   378  LEU378     -0.1245
     74  CA         6.6080  -27.8820   -0.4590 C.3   378  LEU378      0.1561
     75  C          6.8490  -29.3120   -0.8490 C.2   378  LEU378      0.2260
     76  O          6.2210  -29.8010   -1.7910 O.2   378  LEU378     -0.2867
     77  CB         7.7860  -27.0390   -0.9230 C.3   378  LEU378      0.0270
     78  CG         7.4120  -25.8610   -1.8300 C.3   378  LEU378      0.0019
     79  CD1        8.6790  -25.3370   -2.5140 C.3   378  LEU378      0.0001
     80  CD2        6.3740  -26.3010   -2.8700 C.3   378  LEU378      0.0001
     81  N          5.7330  -31.8310    0.0630 N.3   380  SER380     -0.1217
     82  CA         4.5620  -32.6040    0.4500 C.3   380  SER380      0.1889
     83  C          4.7450  -33.4720    1.7090 C.2   380  SER380      0.2288
     84  O          4.8860  -34.6860    1.6310 O.2   380  SER380     -0.2866
     85  CB         4.1120  -33.4790   -0.7380 C.3   380  SER380      0.2089
     86  OG         3.9280  -32.7170   -1.9250 O.3   380  SER380     -0.2183
     87  N         -5.5630  -30.7690   -1.9150 N.3   396  PRO396     -0.2116
     88  CA        -5.7300  -30.2790   -3.2760 C.3   396  PRO396      0.1372
     89  C         -6.0880  -28.8130   -3.1060 C.2   396  PRO396      0.2244
     90  O         -5.6150  -27.9450   -3.8500 O.2   396  PRO396     -0.2868
     91  CB        -6.9170  -31.0920   -3.7760 C.3   396  PRO396      0.0268
     92  CG        -6.7530  -32.3950   -3.0420 C.3   396  PRO396      0.0207
     93  CD        -6.4520  -31.9200   -1.6610 C.3   396  PRO396      0.0892
     94  N         -2.8090  -26.8260   -2.9570 N.3   399  TRP399     -0.1227
     95  CA        -2.1680  -26.8290   -4.2750 C.3   399  TRP399      0.1737
     96  C         -2.9130  -25.9210   -5.2290 C.2   399  TRP399      0.2595
     97  O         -2.3090  -25.0790   -5.8910 O.2   399  TRP399     -0.2718
     98  CB        -2.1320  -28.2350   -4.8540 C.3   399  TRP399      0.0564
     99  CG        -1.1030  -29.0910   -4.2610 C.ar  399  TRP399      0.0003
    100  CD1       -1.2960  -30.3000   -3.6790 C.ar  399  TRP399      0.0946
    101  CD2        0.3050  -28.8380   -4.2020 C.ar  399  TRP399      0.0152
    102  NE1       -0.0970  -30.8240   -3.2590 N.ar  399  TRP399     -0.2442
    103  CE2        0.9020  -29.9430   -3.5680 C.ar  399  TRP399      0.0810
    104  CE3        1.1180  -27.7880   -4.6250 C.ar  399  TRP399      0.0012
    105  CZ2        2.2740  -30.0280   -3.3440 C.ar  399  TRP399      0.0191
    106  CZ3        2.4890  -27.8760   -4.4040 C.ar  399  TRP399      0.0001
    107  CH2        3.0510  -28.9870   -3.7700 C.ar  399  TRP399      0.0015
    108  N         -4.2240  -26.0990   -5.2990 N.am  400  LEU400     -0.1980
    109  CA        -5.0410  -25.2790   -6.1710 C.3   400  LEU400      0.1596
    110  C         -4.9550  -23.8130   -5.7820 C.2   400  LEU400      0.2287
    111  O         -4.3200  -23.0200   -6.4830 O.2   400  LEU400     -0.2864
    112  CB        -6.4910  -25.7480   -6.1280 C.3   400  LEU400      0.0297
    113  CG        -6.6830  -27.0410   -6.9160 C.3   400  LEU400      0.0022
    114  CD1       -8.0880  -27.5680   -6.6990 C.3   400  LEU400      0.0001
    115  CD2       -6.4230  -26.7690   -8.3940 C.3   400  LEU400      0.0001
    116  N         -1.3880  -22.1980   -6.4360 N.3   403  SER403     -0.1202
    117  CA        -0.9680  -22.0000   -7.8110 C.3   403  SER403      0.2020
    118  C         -1.6960  -20.8190   -8.4340 C.2   403  SER403      0.2618
    119  O         -1.0690  -19.9280   -9.0080 O.2   403  SER403     -0.2717
    120  CB        -1.2760  -23.2510   -8.6290 C.3   403  SER403      0.2103
    121  OG        -2.6760  -23.4850   -8.6710 O.3   403  SER403     -0.2182
    122  N         -3.0210  -20.8140   -8.3120 N.am  404  HIS404     -0.1975
    123  CA        -3.8240  -19.7640   -8.8970 C.3   404  HIS404      0.1656
    124  C         -3.6250  -18.3980   -8.3430 C.2   404  HIS404      0.2291
    125  O         -3.8940  -17.4380   -9.0270 O.2   404  HIS404     -0.2864
    126  CB        -5.2850  -20.1510   -8.8750 C.3   404  HIS404      0.0771
    127  CG        -5.5930  -21.2760   -9.8110 C.ar  404  HIS404      0.0820
    128  ND1       -5.0570  -22.5380   -9.6540 N.ar  404  HIS404     -0.2267
    129  CD2       -6.3060  -21.3110  -10.9620 C.ar  404  HIS404      0.1154
    130  CE1       -5.4250  -23.2980  -10.6710 C.ar  404  HIS404      0.1986
    131  NE2       -6.1840  -22.5770  -11.4800 N.ar  404  HIS404     -0.2212
    132  N         -0.5540  -17.3380  -10.4310 N.3   407  LEU407     -0.1245
    133  CA        -0.9900  -17.0450  -11.7760 C.3   407  LEU407      0.1561
    134  C         -1.8310  -15.7780  -11.7230 C.2   407  LEU407      0.2260
    135  O         -1.4760  -14.7700  -12.3320 O.2   407  LEU407     -0.2867
    136  CB        -1.7840  -18.2230  -12.3330 C.3   407  LEU407      0.0270
    137  CG        -0.9620  -19.5100  -12.5180 C.3   407  LEU407      0.0019
    138  CD1       -1.8660  -20.6760  -12.8340 C.3   407  LEU407      0.0001
    139  CD2        0.0640  -19.3190  -13.6150 C.3   407  LEU407      0.0001
@<TRIPOS>BOND
     1     1     2    1
     2     2     5    1
     3     2     3    1
     4     5     6    1
     5     3     4    2
     6     6     7   ar
     7     6     8   ar
     8    15    16    1
     9     7     9   ar
    10     8    11   ar
    11     8    10   ar
    12    11    13   ar
    13    16    19    1
    14    16    17    1
    15     9    10   ar
    16    19    20    1
    17    10    12   ar
    18    17    18    2
    19    13    14   ar
    20    23    24    1
    21    24    27    1
    22    24    25    1
    23    27    28    1
    24    12    14   ar
    25    20    21    1
    26    29    28   ar
    27    29    31   ar
    28    28    30   ar
    29    21    22    1
    30    25    26    2
    31   139   137    1
    32    31    33   ar
    33    30    32   ar
    34   138   137    1
    35   137   136    1
    36    33    32   ar
    37    42    40   ar
    38    42    43   ar
    39   136   133    1
    40   135   134    2
    41    40    39   ar
    42   133   134    1
    43   133   132    1
    44   131   129   ar
    45   131   130   ar
    46    43    41   ar
    47    34    35    1
    48   129   127   ar
    49   130   128   ar
    50    39    41   ar
    51    39    38    1
    52    72    70    1
    53    68    67    2
    54    70    69    1
    55    67    66    1
    56    35    38    1
    57    35    36    1
    58   127   128   ar
    59   127   126    1
    60    69    66    1
    61    69    71    1
    62    36    37    2
    63    66    65    1
    64   125   124    2
    65   119   118    2
    66    65    59   am
    67   123   126    1
    68   123   124    1
    69   123   122    1
    70   121   120    1
    71   120   117    1
    72    63    62    1
    73   118   122   am
    74   118   117    1
    75   115   113    1
    76    62    61    1
    77    62    64    1
    78   117   116    1
    79    61    58    1
    80    59    58    1
    81    59    60    2
    82    58    57    1
    83    56    55    2
    84   113   114    1
    85   113   112    1
    86    55    57   am
    87    55    54    1
    88   111   110    2
    89   109   112    1
    90   109   110    1
    91   109   108    1
    92    47    46    2
    93    97    96    2
    94    51    50    2
    95   108    96   am
    96    54    53    1
    97    96    95    1
    98    98    95    1
    99    98    99    1
   100    46    53   am
   101    46    45    1
   102   104   106   ar
   103   104   101   ar
   104    48    45    1
   105    48    49    1
   106    50    52   am
   107    50    49    1
   108   106   107   ar
   109    95    94    1
   110    99   101   ar
   111    99   100   ar
   112   101   103   ar
   113    90    89    2
   114    45    44    1
   115    91    88    1
   116    91    92    1
   117   107   105   ar
   118   100   102   ar
   119   103   105   ar
   120   103   102   ar
   121    88    89    1
   122    88    87    1
   123    92    93    1
   124    80    78    1
   125    79    78    1
   126    86    85    1
   127    87    93    1
   128    78    77    1
   129    76    75    2
   130    77    74    1
   131    75    74    1
   132    85    82    1
   133    74    73    1
   134    81    82    1
   135    82    83    1
   136    84    83    2
