@<TRIPOS>MOLECULE
tmp/2axtD03.pdb
 119 113 0 0 0
SMALL
GASTEIGER

@<TRIPOS>ATOM
      1  N         -9.1840   48.0410   54.9690 N.3    74  GLY74      -0.1210
      2  CA        -9.2060   47.2460   53.7610 C.3    74  GLY74       0.1956
      3  C         -8.4170   47.9760   52.7290 C.2    74  GLY74       0.2612
      4  O         -7.4410   48.6530   53.0720 O.2    74  GLY74      -0.2717
      5  N         -8.8430   47.8420   51.4750 N.am   75  HIS75      -0.1961
      6  CA        -8.1980   48.5110   50.3540 C.3    75  HIS75       0.1787
      7  C         -8.9750   49.7370   49.9480 C.2    75  HIS75       0.2621
      8  O         -8.8380   50.2280   48.8400 O.2    75  HIS75      -0.2715
      9  CB        -8.0910   47.5550   49.1950 C.3    75  HIS75       0.0785
     10  CG        -7.2180   46.3870   49.4910 C.ar   75  HIS75       0.0821
     11  ND1       -7.3520   45.1700   48.8640 N.ar   75  HIS75      -0.2267
     12  CD2       -6.2090   46.2460   50.3760 C.ar   75  HIS75       0.1154
     13  CE1       -6.4640   44.3240   49.3530 C.ar   75  HIS75       0.1986
     14  NE2       -5.7580   44.9540   50.2740 N.ar   75  HIS75      -0.2212
     15  N         -9.7910   50.2120   50.8830 N.am   76  SER76      -0.1936
     16  CA       -10.6280   51.3920   50.7510 C.3    76  SER76       0.2055
     17  C         -9.8060   52.5950   50.3260 C.2    76  SER76       0.2642
     18  O         -8.7090   52.8050   50.8370 O.2    76  SER76      -0.2714
     19  CB       -11.3040   51.6770   52.0950 C.3    76  SER76       0.2130
     20  OG       -11.7020   53.0220   52.2210 O.3    76  SER76      -0.2179
     21  N        -10.3460   53.3810   49.4000 N.am   77  LEU77      -0.1977
     22  CA        -9.6660   54.5670   48.9060 C.3    77  LEU77       0.1596
     23  C         -9.5730   55.6350   49.9990 C.2    77  LEU77       0.2287
     24  O         -8.6550   56.4590   50.0160 O.2    77  LEU77      -0.2864
     25  CB       -10.4150   55.1130   47.6940 C.3    77  LEU77       0.0297
     26  CG       -10.5770   54.2150   46.4660 C.3    77  LEU77       0.0022
     27  CD1      -11.5900   54.8180   45.5280 C.3    77  LEU77       0.0001
     28  CD2       -9.2570   54.0430   45.7600 C.3    77  LEU77       0.0001
     29  N         -2.1830   58.2070   46.3370 N.3   104  LEU104     -0.1245
     30  CA        -2.8740   58.4860   45.0900 C.3   104  LEU104      0.1561
     31  C         -2.4640   59.7820   44.3850 C.2   104  LEU104      0.2260
     32  O         -2.3760   59.8130   43.1520 O.2   104  LEU104     -0.2867
     33  CB        -4.3730   58.4870   45.3480 C.3   104  LEU104      0.0270
     34  CG        -4.9130   57.1190   45.6780 C.3   104  LEU104      0.0019
     35  CD1       -6.3100   57.2260   46.1980 C.3   104  LEU104      0.0001
     36  CD2       -4.8480   56.3010   44.4370 C.3   104  LEU104      0.0001
     37  N          0.8690   59.4330   43.0510 N.3   107  ALA107     -0.1231
     38  CA         0.7690   58.5500   41.8930 C.3   107  ALA107      0.1694
     39  C          0.5420   59.3410   40.6130 C.2   107  ALA107      0.2592
     40  O          1.3260   59.2460   39.6750 O.2   107  ALA107     -0.2718
     41  CB        -0.3430   57.5700   42.1050 C.3   107  ALA107      0.0304
     42  N         -0.5400   60.1140   40.5820 N.am  108  PHE108     -0.1976
     43  CA        -0.8660   60.9510   39.4310 C.3   108  PHE108      0.1639
     44  C          0.2270   62.0120   39.2380 C.2   108  PHE108      0.2290
     45  O          0.4110   62.5600   38.1530 O.2   108  PHE108     -0.2864
     46  CB        -2.2420   61.6100   39.6240 C.3   108  PHE108      0.0560
     47  CG        -3.4030   60.6780   39.3870 C.ar  108  PHE108     -0.0200
     48  CD1       -3.6220   60.1250   38.1370 C.ar  108  PHE108     -0.0042
     49  CD2       -4.2790   60.3600   40.4120 C.ar  108  PHE108     -0.0042
     50  CE1       -4.7000   59.2680   37.9110 C.ar  108  PHE108     -0.0003
     51  CE2       -5.3590   59.5030   40.1930 C.ar  108  PHE108     -0.0003
     52  CZ        -5.5700   58.9600   38.9480 C.ar  108  PHE108     -0.0000
     53  N          2.7430   60.4660   37.0730 N.3   111  ILE111     -0.1245
     54  CA         2.1900   60.3470   35.7310 C.3   111  ILE111      0.1561
     55  C          2.3790   61.7090   35.0840 C.2   111  ILE111      0.2260
     56  O          2.8070   61.8170   33.9350 O.2   111  ILE111     -0.2867
     57  CB         0.6990   60.0630   35.7760 C.3   111  ILE111      0.0252
     58  CG1        0.4450   58.7920   36.5560 C.3   111  ILE111      0.0019
     59  CG2        0.1490   59.9430   34.3900 C.3   111  ILE111      0.0019
     60  CD1       -1.0140   58.5380   36.7570 C.3   111  ILE111      0.0001
     61  N          8.5520   54.5200   37.9920 N.3   138  ILE138     -0.1245
     62  CA         7.0930   54.3670   38.0460 C.3   138  ILE138      0.1561
     63  C          6.8390   52.9340   38.4940 C.2   138  ILE138      0.2260
     64  O          6.0260   52.7070   39.3670 O.2   138  ILE138     -0.2867
     65  CB         6.4130   54.5730   36.6510 C.3   138  ILE138      0.0252
     66  CG1        6.6130   56.0100   36.1630 C.3   138  ILE138      0.0019
     67  CG2        4.9110   54.2240   36.7410 C.3   138  ILE138      0.0019
     68  CD1        5.7610   57.0570   36.8800 C.3   138  ILE138      0.0001
     69  N          4.8110   52.1600   41.6730 N.3   142  VAL142     -0.1245
     70  CA         3.5010   51.6110   41.3440 C.3   142  VAL142      0.1561
     71  C          3.3030   50.1750   41.8040 C.2   142  VAL142      0.2260
     72  O          2.1770   49.7310   41.9660 O.2   142  VAL142     -0.2867
     73  CB         3.2210   51.7010   39.8340 C.3   142  VAL142      0.0252
     74  CG1        1.9240   50.9950   39.5050 C.3   142  VAL142      0.0019
     75  CG2        3.1410   53.1490   39.4130 C.3   142  VAL142      0.0019
     76  N          1.4150   50.3670   45.5540 N.3   146  LEU146     -0.1231
     77  CA         0.0610   50.1200   45.0720 C.3   146  LEU146      0.1693
     78  C         -0.2940   48.6540   44.8000 C.2   146  LEU146      0.2591
     79  O         -1.2490   48.1360   45.3640 O.2   146  LEU146     -0.2718
     80  CB        -0.2010   50.9460   43.8190 C.3   146  LEU146      0.0284
     81  CG        -0.3840   52.4380   44.0410 C.3   146  LEU146      0.0019
     82  CD1       -0.5520   53.1190   42.7020 C.3   146  LEU146      0.0001
     83  CD2       -1.6010   52.6700   44.9200 C.3   146  LEU146      0.0001
     84  N          0.4560   47.9860   43.9390 N.am  147  ILE147     -0.1980
     85  CA         0.1500   46.6020   43.6560 C.3   147  ILE147      0.1595
     86  C          0.2860   45.7130   44.9030 C.2   147  ILE147      0.2287
     87  O         -0.6520   45.0140   45.2990 O.2   147  ILE147     -0.2864
     88  CB         1.0510   46.0440   42.5230 C.3   147  ILE147      0.0276
     89  CG1        0.8690   46.8600   41.2510 C.3   147  ILE147      0.0022
     90  CG2        0.6800   44.6160   42.2180 C.3   147  ILE147      0.0022
     91  CD1        1.4850   46.2240   40.0140 C.3   147  ILE147      0.0001
     92  N         -2.5420   45.8460   47.2750 N.3   150  LEU150     -0.1245
     93  CA        -3.7730   45.3640   46.6780 C.3   150  LEU150      0.1561
     94  C         -3.8150   43.8600   46.6740 C.2   150  LEU150      0.2260
     95  O         -4.8810   43.2660   46.5540 O.2   150  LEU150     -0.2867
     96  CB        -3.9240   45.8700   45.2550 C.3   150  LEU150      0.0270
     97  CG        -4.2000   47.3480   45.0930 C.3   150  LEU150      0.0019
     98  CD1       -4.2940   47.6440   43.6210 C.3   150  LEU150      0.0001
     99  CD2       -5.4810   47.7110   45.8030 C.3   150  LEU150      0.0001
    100  N         -4.0250   41.9350   52.4550 N.3   153  SER153     -0.1217
    101  CA        -5.2680   42.2340   53.1450 C.3   153  SER153      0.1889
    102  C         -5.7960   43.6720   53.1220 C.2   153  SER153      0.2288
    103  O         -6.9890   43.8860   52.9520 O.2   153  SER153     -0.2866
    104  CB        -5.1480   41.7800   54.5930 C.3   153  SER153      0.2089
    105  OG        -4.0500   42.4150   55.2300 O.3   153  SER153     -0.2183
    106  N         -4.3500   48.2200   53.1900 N.3   155  TRP155     -0.1241
    107  CA        -3.2740   49.1400   52.8360 C.3   155  TRP155      0.1605
    108  C         -2.2440   49.1070   53.9530 C.2   155  TRP155      0.2264
    109  O         -1.0800   49.4440   53.7640 O.2   155  TRP155     -0.2867
    110  CB        -3.7860   50.5880   52.6450 C.3   155  TRP155      0.0550
    111  CG        -4.7150   50.8500   51.4420 C.ar  155  TRP155      0.0003
    112  CD1       -6.0610   51.0760   51.4810 C.ar  155  TRP155      0.0946
    113  CD2       -4.3550   50.8560   50.0610 C.ar  155  TRP155      0.0152
    114  NE1       -6.5580   51.2110   50.2210 N.ar  155  TRP155     -0.2442
    115  CE2       -5.5340   51.0800   49.3260 C.ar  155  TRP155      0.0810
    116  CE3       -3.1500   50.6850   49.3730 C.ar  155  TRP155      0.0012
    117  CZ2       -5.5480   51.1380   47.9340 C.ar  155  TRP155      0.0191
    118  CZ3       -3.1610   50.7400   47.9950 C.ar  155  TRP155      0.0001
    119  CH2       -4.3580   50.9660   47.2840 C.ar  155  TRP155      0.0015
@<TRIPOS>BOND
     1    56    55    2
     2    59    57    1
     3    55    54    1
     4    54    57    1
     5    54    53    1
     6    57    58    1
     7    66    65    1
     8    66    68    1
     9    58    60    1
    10    65    67    1
    11    65    62    1
    12    50    48   ar
    13    50    52   ar
    14    61    62    1
    15    62    63    1
    16    48    47   ar
    17    45    44    2
    18    63    64    2
    19    52    51   ar
    20    44    43    1
    21    47    46    1
    22    47    49   ar
    23    75    73    1
    24    43    46    1
    25    43    42    1
    26    74    73    1
    27    40    39    2
    28    73    70    1
    29    91    89    1
    30    51    49   ar
    31    42    39   am
    32    39    38    1
    33    89    88    1
    34    70    69    1
    35    70    71    1
    36    71    72    2
    37    38    41    1
    38    38    37    1
    39    90    88    1
    40    88    85    1
    41    82    81    1
    42    32    31    2
    43    98    97    1
    44    85    84    1
    45    85    86    1
    46    80    81    1
    47    80    77    1
    48    84    78   am
    49    81    83    1
    50    31    30    1
    51    36    34    1
    52    78    77    1
    53    78    79    2
    54    86    87    2
    55    77    76    1
    56    30    33    1
    57    30    29    1
    58    97    96    1
    59    97    99    1
    60    96    93    1
    61    33    34    1
    62    27    26    1
    63    34    35    1
    64    28    26    1
    65    26    25    1
    66    95    94    2
    67    94    93    1
    68    93    92    1
    69   119   117   ar
    70   119   118   ar
    71    25    22    1
    72   117   115   ar
    73   118   116   ar
    74     8     7    2
    75    11    13   ar
    76    11    10   ar
    77    22    21    1
    78    22    23    1
    79     9    10    1
    80     9     6    1
    81   115   113   ar
    82   115   114   ar
    83    13    14   ar
    84   116   113   ar
    85    21    17   am
    86    10    12   ar
    87     7     6    1
    88     7    15   am
    89    23    24    2
    90   113   111   ar
    91   114   112   ar
    92    14    12   ar
    93    17    16    1
    94    17    18    2
    95     6     5    1
    96    16    15    1
    97    16    19    1
    98   111   112   ar
    99   111   110    1
   100     5     3   am
   101    19    20    1
   102   100   101    1
   103   110   107    1
   104     3     4    2
   105     3     2    1
   106   107   106    1
   107   107   108    1
   108   103   102    2
   109   102   101    1
   110   101   104    1
   111     2     1    1
   112   109   108    2
   113   104   105    1
