@<TRIPOS>MOLECULE
tmp/2axtT12.pdb
 143 138 0 0 0
SMALL
GASTEIGER

@<TRIPOS>ATOM
      1  N         50.6230  -13.3610   30.7160 N.3   192  TYR192     -0.1241
      2  CA        50.3280  -13.2710   32.1350 C.3   192  TYR192      0.1605
      3  C         51.5400  -13.0140   33.0080 C.2   192  TYR192      0.2264
      4  O         51.4120  -12.8950   34.2190 O.2   192  TYR192     -0.2867
      5  CB        49.6040  -14.5430   32.5960 C.3   192  TYR192      0.0534
      6  CG        48.2710  -14.7350   31.9030 C.ar  192  TYR192     -0.0201
      7  CD1       47.2360  -13.8230   32.0930 C.ar  192  TYR192     -0.0009
      8  CD2       48.0640  -15.7870   31.0140 C.ar  192  TYR192     -0.0009
      9  CE1       46.0380  -13.9410   31.4250 C.ar  192  TYR192      0.0417
     10  CE2       46.8580  -15.9150   30.3310 C.ar  192  TYR192      0.0417
     11  CZ        45.8430  -14.9770   30.5470 C.ar  192  TYR192      0.1957
     12  OH        44.6270  -15.0700   29.8870 O.3   192  TYR192     -0.2866
     13  N         44.4980    1.4740   14.7890 N.3   245  PHE245     -0.1241
     14  CA        43.4120    0.5070   14.8910 C.3   245  PHE245      0.1605
     15  C         43.9690   -0.8810   15.1760 C.2   245  PHE245      0.2264
     16  O         43.2420   -1.7710   15.6180 O.2   245  PHE245     -0.2867
     17  CB        42.5070    0.5160   13.6440 C.3   245  PHE245      0.0534
     18  CG        42.9710   -0.3620   12.5000 C.ar  245  PHE245     -0.0203
     19  CD1       43.2550   -1.7100   12.6830 C.ar  245  PHE245     -0.0042
     20  CD2       43.0320    0.1560   11.2060 C.ar  245  PHE245     -0.0042
     21  CE1       43.5830   -2.5100   11.5990 C.ar  245  PHE245     -0.0003
     22  CE2       43.3580   -0.6410   10.1250 C.ar  245  PHE245     -0.0003
     23  CZ        43.6330   -1.9700   10.3140 C.ar  245  PHE245     -0.0000
     24  N         42.6120   -3.0530   18.3290 N.3   249  PHE249     -0.1227
     25  CA        42.1850   -4.4400   18.3060 C.3   249  PHE249      0.1736
     26  C         42.9470   -5.3080   19.2780 C.2   249  PHE249      0.2595
     27  O         42.4630   -6.3630   19.6730 O.2   249  PHE249     -0.2718
     28  CB        42.3290   -5.0210   16.9100 C.3   249  PHE249      0.0547
     29  CG        41.1150   -4.8380   16.0520 C.ar  249  PHE249     -0.0202
     30  CD1       39.9030   -5.3990   16.4140 C.ar  249  PHE249     -0.0042
     31  CD2       41.1800   -4.1100   14.8700 C.ar  249  PHE249     -0.0042
     32  CE1       38.7680   -5.2410   15.6120 C.ar  249  PHE249     -0.0003
     33  CE2       40.0470   -3.9480   14.0610 C.ar  249  PHE249     -0.0003
     34  CZ        38.8410   -4.5160   14.4360 C.ar  249  PHE249     -0.0000
     35  N         44.1360   -4.8690   19.6680 N.am  250  VAL250     -0.1980
     36  CA        44.9500   -5.6550   20.5850 C.3   250  VAL250      0.1595
     37  C         44.6580   -5.3380   22.0340 C.2   250  VAL250      0.2287
     38  O         44.7840   -6.2150   22.8950 O.2   250  VAL250     -0.2864
     39  CB        46.4560   -5.4600   20.3320 C.3   250  VAL250      0.0276
     40  CG1       47.2670   -6.4130   21.2140 C.3   250  VAL250      0.0022
     41  CG2       46.7610   -5.7010   18.8730 C.3   250  VAL250      0.0022
     42  N         41.7460   -4.3450   22.9980 N.3   252  ALA252     -0.1231
     43  CA        40.3860   -4.8100   23.1770 C.3   252  ALA252      0.1694
     44  C         40.4600   -6.2810   23.5120 C.2   252  ALA252      0.2593
     45  O         39.7470   -6.7660   24.3860 O.2   252  ALA252     -0.2718
     46  CB        39.5930   -4.6030   21.9170 C.3   252  ALA252      0.0304
     47  N         41.3370   -6.9890   22.8220 N.am  253  GLY253     -0.1942
     48  CA        41.4820   -8.4070   23.0860 C.3   253  GLY253      0.2014
     49  C         42.0770   -8.7460   24.4470 C.2   253  GLY253      0.2639
     50  O         41.5810   -9.6220   25.1310 O.2   253  GLY253     -0.2714
     51  N         43.1430   -8.0670   24.8390 N.am  254  THR254     -0.1950
     52  CA        43.7790   -8.3440   26.1210 C.3   254  THR254      0.1897
     53  C         42.8850   -7.9400   27.2980 C.2   254  THR254      0.2313
     54  O         43.0980   -8.3610   28.4520 O.2   254  THR254     -0.2863
     55  CB        45.1130   -7.5990   26.2410 C.3   254  THR254      0.1794
     56  OG1       44.8910   -6.1830   26.1500 O.3   254  THR254     -0.2208
     57  CG2       46.0380   -8.0360   25.1320 C.3   254  THR254      0.0378
     58  N         40.0960  -11.0590   27.2420 N.3   257  TYR257     -0.1227
     59  CA        40.6770  -12.2940   27.7240 C.3   257  TYR257      0.1736
     60  C         41.5020  -11.8460   28.9090 C.2   257  TYR257      0.2596
     61  O         41.3330  -10.7400   29.3960 O.2   257  TYR257     -0.2718
     62  CB        41.5950  -12.9050   26.6810 C.3   257  TYR257      0.0548
     63  CG        40.9580  -13.1260   25.3330 C.ar  257  TYR257     -0.0200
     64  CD1       41.5420  -12.6090   24.1860 C.ar  257  TYR257     -0.0009
     65  CD2       39.7890  -13.8620   25.1940 C.ar  257  TYR257     -0.0009
     66  CE1       40.9800  -12.8170   22.9390 C.ar  257  TYR257      0.0417
     67  CE2       39.2220  -14.0730   23.9390 C.ar  257  TYR257      0.0417
     68  CZ        39.8270  -13.5470   22.8240 C.ar  257  TYR257      0.1957
     69  OH        39.3010  -13.7510   21.5800 O.3   257  TYR257     -0.2866
     70  N         42.4090  -12.6770   29.3760 N.am  258  GLY258     -0.1957
     71  CA        43.2180  -12.2730   30.5080 C.3   258  GLY258      0.1869
     72  C         44.3440  -11.3590   30.0750 C.2   258  GLY258      0.2309
     73  O         44.2890  -10.8230   28.9860 O.2   258  GLY258     -0.2863
     74  N         37.0900  -12.1590   34.3860 N.3   270  THR270     -0.1218
     75  CA        36.9920  -12.4630   32.9660 C.3   270  THR270      0.1862
     76  C         35.7780  -13.3260   32.7400 C.2   270  THR270      0.2287
     77  O         35.3950  -14.0400   33.6330 O.2   270  THR270     -0.2866
     78  CB        38.2300  -13.2070   32.5450 C.3   270  THR270      0.1770
     79  OG1       39.0590  -12.3130   31.8120 O.3   270  THR270     -0.2211
     80  CG2       37.9010  -14.4330   31.7130 C.3   270  THR270      0.0375
     81  N         35.6260  -15.8240   30.9680 N.3   272  TYR272     -0.1227
     82  CA        36.1350  -17.1730   30.7670 C.3   272  TYR272      0.1736
     83  C         36.4300  -17.8630   32.0950 C.2   272  TYR272      0.2595
     84  O         36.5010  -19.0870   32.1610 O.2   272  TYR272     -0.2718
     85  CB        37.3820  -17.1240   29.8720 C.3   272  TYR272      0.0548
     86  CG        37.0980  -16.4880   28.5330 C.ar  272  TYR272     -0.0200
     87  CD1       36.5020  -17.2090   27.5170 C.ar  272  TYR272     -0.0009
     88  CD2       37.2710  -15.1210   28.3390 C.ar  272  TYR272     -0.0009
     89  CE1       36.0590  -16.5830   26.3520 C.ar  272  TYR272      0.0417
     90  CE2       36.8310  -14.4880   27.1710 C.ar  272  TYR272      0.0417
     91  CZ        36.2180  -15.2270   26.1940 C.ar  272  TYR272      0.1957
     92  OH        35.6930  -14.6080   25.0920 O.3   272  TYR272     -0.2866
     93  N         36.6030  -17.0860   33.1510 N.am  273  GLN273     -0.1979
     94  CA        36.8560  -17.6720   34.4590 C.3   273  GLN273      0.1601
     95  C         35.5470  -18.2930   34.9950 C.2   273  GLN273      0.2287
     96  O         35.5600  -19.1820   35.8470 O.2   273  GLN273     -0.2864
     97  CB        37.3660  -16.6040   35.4210 C.3   273  GLN273      0.0394
     98  CG        38.3830  -15.6830   34.8190 C.3   273  GLN273      0.0908
     99  CD        39.1510  -14.9410   35.8680 C.2   273  GLN273      0.2608
    100  OE1       40.0320  -15.5040   36.5140 O.2   273  GLN273     -0.2717
    101  NE2       38.8190  -13.6770   36.0630 N.am  273  GLN273     -0.0878
    102  N         34.7350  -21.7210   32.7530 N.3   276  SER276     -0.1217
    103  CA        35.4180  -22.9080   33.2210 C.3   276  SER276      0.1889
    104  C         35.3640  -23.0700   34.7350 C.2   276  SER276      0.2288
    105  O         36.1840  -23.7960   35.3140 O.2   276  SER276     -0.2866
    106  CB        36.8620  -22.8540   32.7810 C.3   276  SER276      0.2089
    107  OG        37.4360  -21.6500   33.2440 O.3   276  SER276     -0.2183
    108  N         36.4530  -21.4650   36.9560 N.3   278  TYR278     -0.1241
    109  CA        37.7900  -21.2260   37.4470 C.3   278  TYR278      0.1605
    110  C         37.7920  -21.0530   38.9430 C.2   278  TYR278      0.2264
    111  O         38.4030  -21.8120   39.6710 O.2   278  TYR278     -0.2867
    112  CB        38.3540  -19.9750   36.8030 C.3   278  TYR278      0.0534
    113  CG        39.7390  -19.5760   37.2620 C.ar  278  TYR278     -0.0201
    114  CD1       40.8460  -20.3960   37.0280 C.ar  278  TYR278     -0.0009
    115  CD2       39.9550  -18.3430   37.8700 C.ar  278  TYR278     -0.0009
    116  CE1       42.1350  -19.9900   37.3840 C.ar  278  TYR278      0.0417
    117  CE2       41.2370  -17.9270   38.2260 C.ar  278  TYR278      0.0417
    118  CZ        42.3220  -18.7500   37.9820 C.ar  278  TYR278      0.1957
    119  OH        43.5860  -18.3250   38.3350 O.3   278  TYR278     -0.2866
    120  N         36.5950   -2.1390   20.5540 N.3   455  ALA455     -0.1245
    121  CA        36.4380   -3.1120   19.4980 C.3   455  ALA455      0.1562
    122  C         35.6750   -2.4600   18.3780 C.2   455  ALA455      0.2260
    123  O         35.8110   -2.8430   17.2270 O.2   455  ALA455     -0.2867
    124  CB        35.6960   -4.3360   19.9980 C.3   455  ALA455      0.0290
    125  N         37.0640   -1.0180   14.5130 N.3   459  LEU459     -0.1245
    126  CA        36.3940   -1.2730   13.2380 C.3   459  LEU459      0.1561
    127  C         36.0220    0.0220   12.5030 C.2   459  LEU459      0.2260
    128  O         35.9460    0.0380   11.2860 O.2   459  LEU459     -0.2867
    129  CB        35.1350   -2.1080   13.4610 C.3   459  LEU459      0.0270
    130  CG        34.7990   -3.0310   12.3000 C.3   459  LEU459      0.0019
    131  CD1       35.7960   -4.1680   12.2690 C.3   459  LEU459      0.0001
    132  CD2       33.4140   -3.5840   12.4710 C.3   459  LEU459      0.0001
    133  N         39.1360    1.4000   10.7520 N.3   462  PHE462     -0.1241
    134  CA        39.6070    0.6290    9.6230 C.3   462  PHE462      0.1605
    135  C         39.1420    1.3960    8.4030 C.2   462  PHE462      0.2264
    136  O         39.8830    1.5530    7.4420 O.2   462  PHE462     -0.2867
    137  CB        38.9710   -0.7430    9.6290 C.3   462  PHE462      0.0534
    138  CG        39.1170   -1.4820    8.3340 C.ar  462  PHE462     -0.0203
    139  CD1       40.3420   -1.9830    7.9320 C.ar  462  PHE462     -0.0042
    140  CD2       38.0180   -1.7070    7.5250 C.ar  462  PHE462     -0.0042
    141  CE1       40.4560   -2.7010    6.7460 C.ar  462  PHE462     -0.0003
    142  CE2       38.1370   -2.4270    6.3370 C.ar  462  PHE462     -0.0003
    143  CZ        39.3520   -2.9190    5.9570 C.ar  462  PHE462     -0.0000
@<TRIPOS>BOND
     1   143   142   ar
     2   143   141   ar
     3   142   140   ar
     4   141   139   ar
     5   136   135    2
     6   140   138   ar
     7   139   138   ar
     8   138   137    1
     9   135   134    1
    10   134   137    1
    11   134   133    1
    12    22    23   ar
    13    22    20   ar
    14    23    21   ar
    15    20    18   ar
    16   128   127    2
    17    21    19   ar
    18   131   130    1
    19   130   132    1
    20   130   129    1
    21    18    19   ar
    22    18    17    1
    23   127   126    1
    24   126   129    1
    25   126   125    1
    26    17    14    1
    27    33    34   ar
    28    33    31   ar
    29    34    32   ar
    30    13    14    1
    31    31    29   ar
    32    14    15    1
    33    15    16    2
    34    32    30   ar
    35    29    30   ar
    36    29    28    1
    37    28    25    1
    38   123   122    2
    39    25    24    1
    40    25    26    1
    41   122   121    1
    42    41    39    1
    43    26    35   am
    44    26    27    2
    45   121   124    1
    46   121   120    1
    47    35    36    1
    48    39    36    1
    49    39    40    1
    50    36    37    1
    51    69    68    1
    52    46    43    1
    53    37    38    2
    54    47    48    1
    55    47    44   am
    56    68    66   ar
    57    68    67   ar
    58    66    64   ar
    59    42    43    1
    60    48    49    1
    61    43    44    1
    62    44    45    2
    63    67    65   ar
    64    64    63   ar
    65    49    51   am
    66    49    50    2
    67    51    52    1
    68    92    91    1
    69    57    55    1
    70    65    63   ar
    71    63    62    1
    72    52    55    1
    73    52    53    1
    74    56    55    1
    75    91    89   ar
    76    91    90   ar
    77    89    87   ar
    78    62    59    1
    79    90    88   ar
    80    58    59    1
    81    53    54    2
    82    87    86   ar
    83    59    60    1
    84    88    86   ar
    85    86    85    1
    86    60    70   am
    87    60    61    2
    88    73    72    2
    89    70    71    1
    90    85    82    1
    91    12    11    1
    92    72    71    1
    93    10    11   ar
    94    10     8   ar
    95    11     9   ar
    96     1     2    1
    97    82    81    1
    98    82    83    1
    99     8     6   ar
   100     9     7   ar
   101    80    78    1
   102    79    78    1
   103     6     7   ar
   104     6     5    1
   105    83    84    2
   106    83    93   am
   107     2     5    1
   108     2     3    1
   109    78    75    1
   110    76    75    1
   111    76    77    2
   112   102   103    1
   113   106   103    1
   114   106   107    1
   115    75    74    1
   116     3     4    2
   117    93    94    1
   118   103   104    1
   119    94    95    1
   120    94    97    1
   121   104   105    2
   122    98    97    1
   123    98    99    1
   124    95    96    2
   125    99   101   am
   126    99   100    2
   127   112   113    1
   128   112   109    1
   129   108   109    1
   130   114   113   ar
   131   114   116   ar
   132   113   115   ar
   133   116   118   ar
   134   109   110    1
   135   115   117   ar
   136   118   117   ar
   137   118   119    1
   138   110   111    2
