@<TRIPOS>MOLECULE
tmp/2axtD04.pdb
 119 117 0 0 0
SMALL
GASTEIGER

@<TRIPOS>ATOM
      1  N         15.1750   63.3920   21.6570 N.3   127  ARG127     -0.1245
      2  CA        14.6750   62.0370   21.8010 C.3   127  ARG127      0.1563
      3  C         14.1230   61.9040   23.2340 C.2   127  ARG127      0.2260
      4  O         14.6280   62.5440   24.1570 O.2   127  ARG127     -0.2867
      5  CB        15.8220   61.0590   21.5410 C.3   127  ARG127      0.0307
      6  CG        16.5320   61.3500   20.2270 C.3   127  ARG127      0.0489
      7  CD        17.7350   60.4570   20.0230 C.3   127  ARG127      0.2205
      8  NE        17.4140   59.1440   19.4480 N.pl3 127  ARG127     -0.0865
      9  CZ        18.2060   58.0810   19.5730 C.cat 127  ARG127      0.5346
     10  NH1       19.3430   58.1880   20.2450 N.pl3 127  ARG127      0.1354
     11  NH2       17.8670   56.9140   19.0490 N.pl3 127  ARG127      0.1354
     12  N         14.3950   59.5730   25.5850 N.3   129  TYR129     -0.1241
     13  CA        14.9980   58.5510   26.4350 C.3   129  TYR129      0.1605
     14  C         15.1600   58.9880   27.8730 C.2   129  TYR129      0.2264
     15  O         16.1060   58.5750   28.5510 O.2   129  TYR129     -0.2867
     16  CB        16.3680   58.1430   25.9410 C.3   129  TYR129      0.0534
     17  CG        16.3360   57.3470   24.6920 C.ar  129  TYR129     -0.0201
     18  CD1       16.0070   57.9450   23.4870 C.ar  129  TYR129     -0.0009
     19  CD2       16.6780   56.0050   24.6980 C.ar  129  TYR129     -0.0009
     20  CE1       16.0280   57.2380   22.3120 C.ar  129  TYR129      0.0417
     21  CE2       16.7010   55.2740   23.5250 C.ar  129  TYR129      0.0417
     22  CZ        16.3780   55.9010   22.3290 C.ar  129  TYR129      0.1957
     23  OH        16.4280   55.2160   21.1300 O.3   129  TYR129     -0.2866
     24  N         11.3530   57.5290   29.0830 N.3   132  ILE132     -0.1245
     25  CA        11.4070   56.0900   28.9630 C.3   132  ILE132      0.1561
     26  C         12.2110   55.6070   30.1660 C.2   132  ILE132      0.2260
     27  O         11.8060   54.6810   30.8990 O.2   132  ILE132     -0.2867
     28  CB        12.0940   55.6830   27.6810 C.3   132  ILE132      0.0252
     29  CG1       11.1370   55.9380   26.5170 C.3   132  ILE132      0.0019
     30  CG2       12.5300   54.2340   27.7670 C.3   132  ILE132      0.0019
     31  CD1       11.7530   55.7550   25.1660 C.3   132  ILE132      0.0001
     32  N         27.2570   54.0520   22.7030 N.3   254  TRP254     -0.1241
     33  CA        26.9070   52.7860   23.3640 C.3   254  TRP254      0.1605
     34  C         27.1160   52.9180   24.8650 C.2   254  TRP254      0.2264
     35  O         26.2920   52.4550   25.6470 O.2   254  TRP254     -0.2867
     36  CB        27.7650   51.6190   22.8410 C.3   254  TRP254      0.0550
     37  CG        27.6390   50.3240   23.6680 C.ar  254  TRP254      0.0003
     38  CD1       28.6490   49.6400   24.2910 C.ar  254  TRP254      0.0946
     39  CD2       26.4350   49.6140   23.9770 C.ar  254  TRP254      0.0152
     40  NE1       28.1510   48.5590   24.9640 N.ar  254  TRP254     -0.2442
     41  CE2       26.7930   48.5180   24.7900 C.ar  254  TRP254      0.0810
     42  CE3       25.0830   49.8000   23.6470 C.ar  254  TRP254      0.0012
     43  CZ2       25.8470   47.6090   25.2800 C.ar  254  TRP254      0.0191
     44  CZ3       24.1440   48.8960   24.1340 C.ar  254  TRP254      0.0001
     45  CH2       24.5320   47.8150   24.9420 C.ar  254  TRP254      0.0015
     46  N         24.2120   54.5130   26.4190 N.3   257  PHE257     -0.1241
     47  CA        22.9500   53.7940   26.3860 C.3   257  PHE257      0.1605
     48  C         22.9780   52.7300   27.4800 C.2   257  PHE257      0.2264
     49  O         21.9730   52.5010   28.1700 O.2   257  PHE257     -0.2867
     50  CB        22.7080   53.1310   25.0460 C.3   257  PHE257      0.0534
     51  CG        21.5210   52.2130   25.0510 C.ar  257  PHE257     -0.0203
     52  CD1       20.2730   52.6750   25.4370 C.ar  257  PHE257     -0.0042
     53  CD2       21.6640   50.8630   24.7220 C.ar  257  PHE257     -0.0042
     54  CE1       19.1840   51.8120   25.5010 C.ar  257  PHE257     -0.0003
     55  CE2       20.5770   49.9850   24.7820 C.ar  257  PHE257     -0.0003
     56  CZ        19.3390   50.4660   25.1740 C.ar  257  PHE257     -0.0000
     57  N         21.9610   53.7420   30.6700 N.3   260  LEU260     -0.1231
     58  CA        20.5360   53.9550   30.8060 C.3   260  LEU260      0.1693
     59  C         19.8880   52.6200   31.0710 C.2   260  LEU260      0.2592
     60  O         18.9620   52.5340   31.8630 O.2   260  LEU260     -0.2718
     61  CB        19.9490   54.5500   29.5280 C.3   260  LEU260      0.0284
     62  CG        18.4390   54.8300   29.5670 C.3   260  LEU260      0.0019
     63  CD1       18.1250   55.8770   28.5290 C.3   260  LEU260      0.0001
     64  CD2       17.6220   53.5830   29.3180 C.3   260  LEU260      0.0001
     65  N         20.3900   51.5830   30.4080 N.am  261  PHE261     -0.1976
     66  CA        19.8550   50.2330   30.5160 C.3   261  PHE261      0.1639
     67  C         20.1030   49.5450   31.8510 C.2   261  PHE261      0.2290
     68  O         19.2060   48.9170   32.4320 O.2   261  PHE261     -0.2864
     69  CB        20.4570   49.3890   29.3990 C.3   261  PHE261      0.0560
     70  CG        20.0700   47.9620   29.4420 C.ar  261  PHE261     -0.0200
     71  CD1       18.8270   47.5590   29.0110 C.ar  261  PHE261     -0.0042
     72  CD2       20.9570   47.0240   29.9120 C.ar  261  PHE261     -0.0042
     73  CE1       18.4740   46.2490   29.0460 C.ar  261  PHE261     -0.0003
     74  CE2       20.6140   45.7140   29.9500 C.ar  261  PHE261     -0.0003
     75  CZ        19.3640   45.3200   29.5160 C.ar  261  PHE261     -0.0000
     76  N         18.1070   51.2000   34.9270 N.3   264  VAL264     -0.1231
     77  CA        16.6920   51.1000   34.6160 C.3   264  VAL264      0.1692
     78  C         16.2150   49.6400   34.6900 C.2   264  VAL264      0.2592
     79  O         15.2550   49.3300   35.3840 O.2   264  VAL264     -0.2718
     80  CB        16.4090   51.6320   33.2030 C.3   264  VAL264      0.0266
     81  CG1       15.0350   51.1810   32.7210 C.3   264  VAL264      0.0020
     82  CG2       16.5010   53.1260   33.1980 C.3   264  VAL264      0.0020
     83  N         16.8720   48.7580   33.9540 N.am  265  THR265     -0.1953
     84  CA        16.5180   47.3500   33.9370 C.3   265  THR265      0.1897
     85  C         16.4300   46.7510   35.3470 C.2   265  THR265      0.2313
     86  O         15.4330   46.1120   35.7050 O.2   265  THR265     -0.2863
     87  CB        17.5440   46.5640   33.1240 C.3   265  THR265      0.1794
     88  OG1       17.5640   47.0730   31.7890 O.3   265  THR265     -0.2208
     89  CG2       17.2090   45.0850   33.1050 C.3   265  THR265      0.0378
     90  N         13.5190   47.3640   37.2690 N.3   268  TRP268     -0.1227
     91  CA        12.3530   46.7470   36.7000 C.3   268  TRP268      0.1737
     92  C         12.2520   45.3640   37.2470 C.2   268  TRP268      0.2595
     93  O         11.1830   44.9440   37.6390 O.2   268  TRP268     -0.2718
     94  CB        12.4070   46.7130   35.1750 C.3   268  TRP268      0.0564
     95  CG        11.6790   47.8740   34.5510 C.ar  268  TRP268      0.0003
     96  CD1       12.2010   49.0970   34.2330 C.ar  268  TRP268      0.0946
     97  CD2       10.2700   47.9590   34.2790 C.ar  268  TRP268      0.0152
     98  NE1       11.2060   49.9380   33.7910 N.ar  268  TRP268     -0.2442
     99  CE2       10.0130   49.2650   33.8110 C.ar  268  TRP268      0.0810
    100  CE3        9.2010   47.0590   34.3910 C.ar  268  TRP268      0.0012
    101  CZ2        8.7340   49.6910   33.4580 C.ar  268  TRP268      0.0191
    102  CZ3        7.9420   47.4800   34.0410 C.ar  268  TRP268      0.0001
    103  CH2        7.7140   48.7880   33.5800 C.ar  268  TRP268      0.0015
    104  N         13.3640   44.6540   37.2880 N.am  269  MET269     -0.1979
    105  CA        13.3550   43.2990   37.8040 C.3   269  MET269      0.1605
    106  C         12.9730   43.3900   39.2770 C.2   269  MET269      0.2287
    107  O         12.2700   42.5420   39.8410 O.2   269  MET269     -0.2864
    108  CB        14.7340   42.6670   37.6400 C.3   269  MET269      0.0413
    109  CG        15.2240   42.6300   36.2020 C.3   269  MET269      0.0598
    110  SD        14.2100   41.6110   35.1080 S.3   269  MET269     -0.1393
    111  CE        13.1030   42.7750   34.4240 C.3   269  MET269      0.0692
    112  N          9.0570   43.4840   39.2420 N.3   272  ILE272     -0.1245
    113  CA         8.4500   42.1940   38.9710 C.3   272  ILE272      0.1561
    114  C          8.5120   41.3480   40.2440 C.2   272  ILE272      0.2260
    115  O          7.5320   40.7230   40.6330 O.2   272  ILE272     -0.2867
    116  CB         9.1940   41.4600   37.8470 C.3   272  ILE272      0.0252
    117  CG1        9.1070   42.2670   36.5740 C.3   272  ILE272      0.0019
    118  CG2        8.5950   40.1010   37.5990 C.3   272  ILE272      0.0019
    119  CD1        9.8050   41.6050   35.4480 C.3   272  ILE272      0.0001
@<TRIPOS>BOND
     1    11     9    1
     2     8     9    2
     3     8     7    1
     4     9    10    1
     5     7     6    1
     6     6     5    1
     7    23    22    1
     8     5     2    1
     9     1     2    1
    10     2     3    1
    11    20    22   ar
    12    20    18   ar
    13    22    21   ar
    14    32    33    1
    15    36    33    1
    16    36    37    1
    17     3     4    2
    18    33    34    1
    19    18    17   ar
    20    21    19   ar
    21    42    39   ar
    22    42    44   ar
    23    37    39   ar
    24    37    38   ar
    25    39    41   ar
    26    44    45   ar
    27    38    40   ar
    28    17    19   ar
    29    17    16    1
    30    53    55   ar
    31    53    51   ar
    32    55    56   ar
    33    41    40   ar
    34    41    43   ar
    35    34    35    2
    36    45    43   ar
    37    50    51    1
    38    50    47    1
    39    51    52   ar
    40    31    29    1
    41    56    54   ar
    42    52    54   ar
    43    12    13    1
    44    16    13    1
    45    47    46    1
    46    47    48    1
    47    13    14    1
    48    29    28    1
    49    48    49    2
    50    28    30    1
    51    28    25    1
    52    14    15    2
    53    63    62    1
    54    25    24    1
    55    25    26    1
    56    71    73   ar
    57    71    70   ar
    58    73    75   ar
    59    64    62    1
    60    69    70    1
    61    69    66    1
    62    70    72   ar
    63    75    74   ar
    64    61    62    1
    65    61    58    1
    66    72    74   ar
    67    26    27    2
    68    65    66    1
    69    65    59   am
    70    66    67    1
    71    57    58    1
    72    58    59    1
    73    59    60    2
    74    88    87    1
    75    67    68    2
    76    81    80    1
    77    89    87    1
    78    87    84    1
    79    82    80    1
    80    80    77    1
    81   101   103   ar
    82   101    99   ar
    83   103   102   ar
    84    98    99   ar
    85    98    96   ar
    86    99    97   ar
    87    84    83    1
    88    84    85    1
    89    83    78   am
    90   102   100   ar
    91    96    95   ar
    92    97   100   ar
    93    97    95   ar
    94   111   110    1
    95    95    94    1
    96    77    78    1
    97    77    76    1
    98    78    79    2
    99   110   109    1
   100    94    91    1
   101    85    86    2
   102   119   117    1
   103   109   108    1
   104   117   116    1
   105    91    92    1
   106    91    90    1
   107    92   104   am
   108    92    93    2
   109   104   105    1
   110   118   116    1
   111   108   105    1
   112   105   106    1
   113   116   113    1
   114   113   112    1
   115   113   114    1
   116   106   107    2
   117   114   115    2
