@<TRIPOS>MOLECULE
tmp/2axyF00.pdb
 173 164 0 0 0
SMALL
GASTEIGER

@<TRIPOS>ATOM
      1  N         51.2210   59.1840   11.0070 N.3    10  GLY10      -0.1210
      2  CA        52.2500   59.2440    9.9700 C.3    10  GLY10       0.1956
      3  C         52.0180   60.3090    8.9100 C.2    10  GLY10       0.2611
      4  O         52.9630   60.9840    8.4780 O.2    10  GLY10      -0.2717
      5  N         50.7700   60.4610    8.4810 N.am   11  LYS11      -0.1979
      6  CA        50.4160   61.4630    7.4860 C.3    11  LYS11       0.1596
      7  C         50.8790   62.8560    7.9250 C.2    11  LYS11       0.2287
      8  O         51.5370   63.5840    7.1650 O.2    11  LYS11      -0.2864
      9  CB        48.9010   61.4400    7.2060 C.3    11  LYS11       0.0298
     10  CG        48.5030   61.9660    5.8250 C.3    11  LYS11       0.0038
     11  CD        48.4790   63.5040    5.7820 C.3    11  LYS11       0.0206
     12  CE        48.5560   64.0440    4.3410 C.3    11  LYS11       0.1093
     13  NZ        49.0110   65.4780    4.2940 N.3    11  LYS11      -0.1314
     14  N         53.1030   63.5650   10.2860 N.3    13  VAL13      -0.1231
     15  CA        54.5580   63.6090   10.3980 C.3    13  VAL13       0.1692
     16  C         55.2200   63.9510    9.0820 C.2    13  VAL13       0.2593
     17  O         56.1410   64.7520    9.0620 O.2    13  VAL13      -0.2718
     18  CB        55.1360   62.2940   10.9730 C.3    13  VAL13       0.0266
     19  CG1       56.6590   62.2660   10.8800 C.3    13  VAL13       0.0020
     20  CG2       54.7220   62.1840   12.3900 C.3    13  VAL13       0.0020
     21  N         54.7220   63.3770    7.9910 N.am   14  GLY14      -0.1942
     22  CA        55.2390   63.6690    6.6590 C.3    14  GLY14       0.2014
     23  C         55.2150   65.1580    6.3980 C.2    14  GLY14       0.2639
     24  O         56.1630   65.7020    5.8280 O.2    14  GLY14      -0.2714
     25  N         54.1200   65.8190    6.8100 N.am   15  SER15      -0.1949
     26  CA        53.9680   67.2510    6.6050 C.3    15  SER15       0.1924
     27  C         54.9380   68.0680    7.4960 C.2    15  SER15       0.2314
     28  O         55.5270   69.0610    7.0710 O.2    15  SER15      -0.2863
     29  CB        52.5080   67.6520    6.8400 C.3    15  SER15       0.2116
     30  OG        52.3420   69.0270    6.6000 O.3    15  SER15      -0.2180
     31  N         57.8750   66.9550    8.7980 N.3    17  ILE17      -0.1231
     32  CA        59.2210   66.7690    8.2200 C.3    17  ILE17       0.1692
     33  C         59.3840   67.5780    6.9160 C.2    17  ILE17       0.2593
     34  O         60.3090   68.3710    6.7920 O.2    17  ILE17      -0.2718
     35  CB        59.5680   65.2740    8.0100 C.3    17  ILE17       0.0266
     36  CG1       59.5260   64.5260    9.3490 C.3    17  ILE17       0.0019
     37  CG2       60.9550   65.1170    7.3880 C.3    17  ILE17       0.0020
     38  CD1       59.6960   63.0210    9.2190 C.3    17  ILE17       0.0001
     39  N         58.4850   67.3490    5.9570 N.am   18  GLY18      -0.1942
     40  CA        58.5020   68.0600    4.6810 C.3    18  GLY18       0.2014
     41  C         59.4660   67.3900    3.7290 C.2    18  GLY18       0.2639
     42  O         60.2650   66.5440    4.1480 O.2    18  GLY18      -0.2714
     43  N         59.3860   67.7520    2.4470 N.am   19  LYS19      -0.1963
     44  CA        60.2890   67.1890    1.4460 C.3    19  LYS19       0.1728
     45  C         61.7310   67.4710    1.8380 C.2    19  LYS19       0.2616
     46  O         62.0840   68.6130    2.1610 O.2    19  LYS19      -0.2715
     47  CB        59.9740   67.7390    0.0520 C.3    19  LYS19       0.0311
     48  CG        58.6620   67.2260   -0.5320 C.3    19  LYS19       0.0038
     49  CD        58.7430   65.7870   -1.0710 C.3    19  LYS19       0.0206
     50  CE        59.7380   65.5990   -2.2300 C.3    19  LYS19       0.1093
     51  NZ        61.0100   64.9300   -1.7780 N.3    19  LYS19      -0.1314
     52  N         62.5450   66.4150    1.8400 N.am   20  LYS20      -0.1963
     53  CA        63.9480   66.4750    2.2740 C.3    20  LYS20       0.1728
     54  C         64.2060   67.0040    3.7010 C.2    20  LYS20       0.2616
     55  O         65.3130   67.4690    3.9970 O.2    20  LYS20      -0.2715
     56  CB        64.7840   67.2490    1.2440 C.3    20  LYS20       0.0311
     57  CG        65.1770   66.4080    0.0370 C.3    20  LYS20       0.0038
     58  CD        64.0750   66.3080   -1.0100 C.3    20  LYS20       0.0206
     59  CE        64.4340   65.2910   -2.1090 C.3    20  LYS20       0.1093
     60  NZ        65.8790   65.2950   -2.4670 N.3    20  LYS20      -0.1314
     61  N         63.2070   66.9220    4.5830 N.am   21  GLY21      -0.1955
     62  CA        63.3310   67.4940    5.9290 C.3    21  GLY21       0.1869
     63  C         63.3650   69.0130    5.9860 C.2    21  GLY21       0.2309
     64  O         63.6950   69.5820    7.0180 O.2    21  GLY21      -0.2863
     65  N         61.0680   70.5050    9.0840 N.3    24  VAL24      -0.1245
     66  CA        61.5830   70.2760   10.4380 C.3    24  VAL24       0.1561
     67  C         62.9270   71.0370   10.6190 C.2    24  VAL24       0.2260
     68  O         63.2150   71.5490   11.7100 O.2    24  VAL24      -0.2867
     69  CB        61.6740   68.7550   10.7810 C.3    24  VAL24       0.0252
     70  CG1       62.6930   68.0300    9.8770 C.3    24  VAL24       0.0019
     71  CG2       61.9790   68.5370   12.2750 C.3    24  VAL24       0.0019
     72  N         63.7220   73.4570   13.6820 N.3    27  ARG27      -0.1245
     73  CA        64.8780   73.3320   14.5760 C.3    27  ARG27       0.1563
     74  C         65.6860   74.6260   14.6330 C.2    27  ARG27       0.2260
     75  O         66.1460   75.0290   15.7020 O.2    27  ARG27      -0.2867
     76  CB        65.7720   72.1620   14.1610 C.3    27  ARG27       0.0307
     77  CG        65.1100   70.7940   14.3410 C.3    27  ARG27       0.0489
     78  CD        66.0250   69.6900   13.8550 C.3    27  ARG27       0.2205
     79  NE        65.5120   68.3730   14.2350 N.pl3  27  ARG27      -0.0865
     80  CZ        65.2800   67.3820   13.3840 C.cat  27  ARG27       0.5346
     81  NH1       65.5340   67.5270   12.0820 N.pl3  27  ARG27       0.1354
     82  NH2       64.8150   66.2290   13.8400 N.pl3  27  ARG27       0.1354
     83  N         65.1060   71.4700   20.8200 N.3    33  ARG33      -0.1231
     84  CA        65.5210   70.1890   20.2250 C.3    33  ARG33       0.1694
     85  C         64.2830   69.4220   19.7880 C.2    33  ARG33       0.2592
     86  O         63.3710   69.2110   20.5840 O.2    33  ARG33      -0.2718
     87  CB        66.3640   69.3370   21.1970 C.3    33  ARG33       0.0321
     88  CG        67.8220   69.7860   21.3670 C.3    33  ARG33       0.0489
     89  CD        68.0730   70.4070   22.7260 C.3    33  ARG33       0.2205
     90  NE        67.9900   69.4090   23.7940 N.pl3  33  ARG33      -0.0865
     91  CZ        67.6540   69.6830   25.0510 C.cat  33  ARG33       0.5346
     92  NH1       67.3640   70.9290   25.4170 N.pl3  33  ARG33       0.1354
     93  NH2       67.5970   68.7050   25.9430 N.pl3  33  ARG33       0.1354
     94  N         64.2370   69.0160   18.5210 N.am   34  ILE34      -0.1966
     95  CA        63.0680   68.3100   17.9810 C.3    34  ILE34       0.1727
     96  C         63.5300   66.9360   17.4730 C.2    34  ILE34       0.2616
     97  O         64.4350   66.8520   16.6440 O.2    34  ILE34      -0.2715
     98  CB        62.4060   69.1200   16.8380 C.3    34  ILE34       0.0290
     99  CG1       62.0200   70.5240   17.3490 C.3    34  ILE34       0.0022
    100  CG2       61.1690   68.3570   16.2380 C.3    34  ILE34       0.0023
    101  CD1       61.4840   71.5000   16.2860 C.3    34  ILE34       0.0001
    102  N         62.9350   65.8710   17.9900 N.am   35  ASN35      -0.1958
    103  CA        63.2220   64.5290   17.4920 C.3    35  ASN35       0.1819
    104  C         61.9210   63.8840   17.0380 C.2    35  ASN35       0.2621
    105  O         60.9040   63.9870   17.7260 O.2    35  ASN35      -0.2715
    106  CB        63.8210   63.6600   18.5830 C.3    35  ASN35       0.1195
    107  CG        64.0160   62.2380   18.1320 C.2    35  ASN35       0.2630
    108  OD1       63.1440   61.3830   18.3220 O.2    35  ASN35      -0.2716
    109  ND2       65.1550   61.9780   17.4790 N.am   35  ASN35      -0.0877
    110  N         61.9630   63.2400   15.8790 N.am   36  ILE36      -0.1963
    111  CA        60.8200   62.4850   15.3680 C.3    36  ILE36       0.1727
    112  C         61.2130   61.0080   15.3340 C.2    36  ILE36       0.2617
    113  O         62.2870   60.6470   14.7730 O.2    36  ILE36      -0.2715
    114  CB        60.4440   63.0040   13.9680 C.3    36  ILE36       0.0290
    115  CG1       60.0880   64.4980   14.0810 C.3    36  ILE36       0.0022
    116  CG2       59.3240   62.1320   13.3380 C.3    36  ILE36       0.0023
    117  CD1       60.0860   65.2390   12.7840 C.3    36  ILE36       0.0001
    118  N         60.3700   60.1680   15.9500 N.am   37  SER37      -0.1936
    119  CA        60.6570   58.7240   16.0920 C.3    37  SER37       0.2055
    120  C         60.8520   58.0310   14.7540 C.2    37  SER37       0.2643
    121  O         60.2950   58.4650   13.7450 O.2    37  SER37      -0.2714
    122  CB        59.5840   58.0090   16.9170 C.3    37  SER37       0.2130
    123  OG        58.3280   58.0230   16.2810 O.3    37  SER37      -0.2179
    124  N         61.6980   56.9890   14.7550 N.am   38  GLU38      -0.1963
    125  CA        62.0520   56.2840   13.5340 C.3    38  GLU38       0.1733
    126  C         60.9640   55.2870   13.1860 C.2    38  GLU38       0.2617
    127  O         60.1490   54.9090   14.0400 O.2    38  GLU38      -0.2715
    128  CB        63.3860   55.5360   13.7200 C.3    38  GLU38       0.0429
    129  CG        64.5470   56.4180   14.1570 C.3    38  GLU38       0.1163
    130  CD        64.8580   57.5290   13.1710 C.2    38  GLU38       0.3649
    131  OE1       65.2680   58.6140   13.6350 O.co2  38  GLU38      -0.2457
    132  OE2       64.6940   57.3310   11.9460 O.co2  38  GLU38      -0.2457
    133  N         60.9560   54.8670   11.9300 N.am   39  GLY39      -0.1940
    134  CA        60.1470   53.7350   11.5180 C.3    39  GLY39       0.2014
    135  C         58.7790   54.1880   11.0970 C.2    39  GLY39       0.2638
    136  O         58.5520   55.3830   10.8760 O.2    39  GLY39      -0.2714
    137  N         57.8640   53.2310   10.9730 N.am   40  ASN40      -0.1972
    138  CA        56.5620   53.5230   10.3840 C.3    40  ASN40       0.1688
    139  C         55.3550   53.1620   11.2230 C.2    40  ASN40       0.2292
    140  O         54.2990   52.8220   10.6810 O.2    40  ASN40      -0.2864
    141  CB        56.4500   52.8990    8.9930 C.3    40  ASN40       0.1181
    142  CG        57.1510   53.7230    7.9320 C.2    40  ASN40       0.2629
    143  OD1       57.9670   53.1990    7.1750 O.2    40  ASN40      -0.2716
    144  ND2       56.8430   55.0260    7.8770 N.am   40  ASN40      -0.0877
    145  N         53.5710   58.0810   15.5520 N.3    44  ARG44      -0.1245
    146  CA        54.9480   58.4640   15.7270 C.3    44  ARG44       0.1563
    147  C         55.0480   59.3940   16.9290 C.2    44  ARG44       0.2260
    148  O         54.0510   59.9800   17.3510 O.2    44  ARG44      -0.2867
    149  CB        55.4100   59.1780   14.4670 C.3    44  ARG44       0.0307
    150  CG        55.2110   58.3480   13.1760 C.3    44  ARG44       0.0489
    151  CD        56.3950   57.4170   12.9540 C.3    44  ARG44       0.2205
    152  NE        57.6250   58.1230   12.5850 N.pl3  44  ARG44      -0.0865
    153  CZ        57.9140   58.6010   11.3730 C.cat  44  ARG44       0.5346
    154  NH1       57.0520   58.4940   10.3510 N.pl3  44  ARG44       0.1354
    155  NH2       59.0860   59.1890   11.1770 N.pl3  44  ARG44       0.1354
    156  N         51.6850   74.3020   10.7420 N.3    64  LYS64      -0.1245
    157  CA        51.8530   73.3560    9.6280 C.3    64  LYS64       0.1561
    158  C         50.5790   72.5220    9.4100 C.2    64  LYS64       0.2260
    159  O         50.1450   72.2880    8.2670 O.2    64  LYS64      -0.2867
    160  CB        53.0420   72.4340    9.9050 C.3    64  LYS64       0.0271
    161  CG        53.2840   71.3930    8.8140 C.3    64  LYS64       0.0035
    162  CD        53.5810   72.0780    7.4900 C.3    64  LYS64       0.0206
    163  CE        54.9150   72.7990    7.4890 C.3    64  LYS64       0.1093
    164  NZ        55.2060   73.3890    6.1630 N.3    64  LYS64      -0.1314
    165  N         47.9620   74.4730    7.4990 N.3    67  GLU67      -0.1245
    166  CA        48.3470   75.0310    6.1860 C.3    67  GLU67       0.1567
    167  C         47.3090   74.8180    5.0960 C.2    67  GLU67       0.2260
    168  O         46.6740   73.7660    5.0610 O.2    67  GLU67      -0.2867
    169  CB        49.6640   74.4330    5.7240 C.3    67  GLU67       0.0388
    170  CG        50.8420   75.0670    6.3890 C.3    67  GLU67       0.1160
    171  CD        52.1500   74.7140    5.7070 C.2    67  GLU67       0.3649
    172  OE1       53.1790   75.2980    6.1130 O.co2  67  GLU67      -0.2457
    173  OE2       52.1570   73.8580    4.7790 O.co2  67  GLU67      -0.2457
@<TRIPOS>BOND
     1    60    59    1
     2    50    51    1
     3    50    49    1
     4    59    58    1
     5    49    48    1
     6    58    57    1
     7    48    47    1
     8    57    56    1
     9    47    44    1
    10    56    53    1
    11    44    45    1
    12    44    43    1
    13    45    52   am
    14    45    46    2
    15    52    53    1
    16    53    54    1
    17    43    41   am
    18    54    55    2
    19    54    61   am
    20    41    42    2
    21    41    40    1
    22    13    12    1
    23    12    11    1
    24    61    62    1
    25    40    39    1
    26   173   171   ar
    27   168   167    2
    28   167   166    1
    29   171   172   ar
    30   171   170    1
    31   169   166    1
    32   169   170    1
    33    11    10    1
    34    10     9    1
    35    24    23    2
    36    62    63    1
    37    39    33   am
    38    63    64    2
    39   164   163    1
    40   166   165    1
    41    23    22    1
    42    23    25   am
    43    30    29    1
    44    26    25    1
    45    26    29    1
    46    26    27    1
    47    22    21    1
    48    34    33    2
    49    33    32    1
    50    28    27    2
    51     8     7    2
    52   143   142    2
    53     9     6    1
    54    37    35    1
    55     6     7    1
    56     6     5    1
    57   163   162    1
    58   162   161    1
    59   144   142   am
    60   142   141    1
    61    21    16   am
    62    35    32    1
    63    35    36    1
    64    32    31    1
    65   159   158    2
    66     4     3    2
    67     5     3   am
    68   161   160    1
    69     3     2    1
    70   141   138    1
    71    17    16    2
    72    16    15    1
    73    65    66    1
    74    38    36    1
    75   158   157    1
    76   157   160    1
    77   157   156    1
    78    70    69    1
    79     2     1    1
    80    14    15    1
    81   154   153    1
    82   138   137    1
    83   138   139    1
    84    15    18    1
    85    66    67    1
    86    66    69    1
    87    67    68    2
    88   140   139    2
    89    69    71    1
    90   136   135    2
    91    19    18    1
    92    18    20    1
    93   137   135   am
    94   135   134    1
    95   155   153    1
    96   153   152    2
    97   134   133    1
    98   133   126   am
    99   132   130   ar
   100    81    80    1
   101   152   151    1
   102   117   115    1
   103   151   150    1
   104   130   131   ar
   105   130   129    1
   106   150   149    1
   107   126   125    1
   108   126   127    2
   109   116   114    1
   110    80    82    1
   111    80    79    2
   112   125   128    1
   113   125   124    1
   114    72    73    1
   115   128   129    1
   116   121   120    2
   117    78    79    1
   118    78    77    1
   119   114   115    1
   120   114   111    1
   121    76    77    1
   122    76    73    1
   123   149   146    1
   124    73    74    1
   125    74    75    2
   126   120   124   am
   127   120   119    1
   128   113   112    2
   129   112   111    1
   130   112   118   am
   131   111   110    1
   132   145   146    1
   133   146   147    1
   134   110   104   am
   135   118   119    1
   136   119   122    1
   137   100    98    1
   138   123   122    1
   139   101    99    1
   140    97    96    2
   141    98    99    1
   142    98    95    1
   143   147   148    2
   144   104   103    1
   145   104   105    2
   146    96    95    1
   147    96   102   am
   148   109   107   am
   149   103   102    1
   150   103   106    1
   151    95    94    1
   152   107   108    2
   153   107   106    1
   154    94    85   am
   155    85    84    1
   156    85    86    2
   157    84    83    1
   158    84    87    1
   159    87    88    1
   160    88    89    1
   161    89    90    1
   162    90    91    2
   163    91    92    1
   164    91    93    1
