@<TRIPOS>MOLECULE
tmp/2ay1B01.pdb
 134 126 0 0 0
SMALL
GASTEIGER

@<TRIPOS>ATOM
      1  N         92.4850   44.3380   17.2110 N.3    11  ASP11      -0.1239
      2  CA        93.8490   44.8070   17.0160 C.3    11  ASP11       0.1674
      3  C         93.7900   46.3240   17.1800 C.2    11  ASP11       0.2266
      4  O         93.2890   47.0320   16.3020 O.2    11  ASP11      -0.2867
      5  CB        94.3440   44.4440   15.6020 C.3    11  ASP11       0.1410
      6  CG        95.8520   44.6710   15.4140 C.2    11  ASP11       0.3668
      7  OD1       96.4390   45.5560   16.0830 O.co2  11  ASP11      -0.2456
      8  OD2       96.4560   43.9680   14.5770 O.co2  11  ASP11      -0.2456
      9  N         96.1520   48.5080   17.0060 N.3    13  ILE13      -0.1231
     10  CA        96.9540   49.1760   15.9750 C.3    13  ILE13       0.1692
     11  C         96.1290   49.3600   14.6990 C.2    13  ILE13       0.2591
     12  O         96.1420   50.4310   14.0840 O.2    13  ILE13      -0.2718
     13  CB        98.2380   48.3760   15.6250 C.3    13  ILE13       0.0266
     14  CG1       99.1200   48.2130   16.8660 C.3    13  ILE13       0.0019
     15  CG2       99.0210   49.0810   14.5190 C.3    13  ILE13       0.0020
     16  CD1      100.4190   47.4580   16.6090 C.3    13  ILE13       0.0001
     17  N         95.4120   48.3120   14.3060 N.am   14  LEU14      -0.1980
     18  CA        94.5780   48.3690   13.1100 C.3    14  LEU14       0.1596
     19  C         93.2930   49.1500   13.3850 C.2    14  LEU14       0.2287
     20  O         92.7350   49.7760   12.4800 O.2    14  LEU14      -0.2864
     21  CB        94.2540   46.9600   12.6010 C.3    14  LEU14       0.0297
     22  CG        95.4360   46.0750   12.1840 C.3    14  LEU14       0.0022
     23  CD1       94.9160   44.7220   11.7250 C.3    14  LEU14       0.0001
     24  CD2       96.2550   46.7390   11.0850 C.3    14  LEU14       0.0001
     25  N        100.0050   52.3410   11.9320 N.3    27  VAL27      -0.1231
     26  CA       100.3970   51.0790   11.2900 C.3    27  VAL27       0.1692
     27  C        101.7780   51.0960   10.6360 C.2    27  VAL27       0.2593
     28  O        102.1590   52.0570    9.9620 O.2    27  VAL27      -0.2718
     29  CB        99.3180   50.5740   10.2900 C.3    27  VAL27       0.0266
     30  CG1       99.6870   49.1890    9.7590 C.3    27  VAL27       0.0020
     31  CG2       97.9620   50.5030   10.9820 C.3    27  VAL27       0.0020
     32  N        102.5050   50.0030   10.8320 N.am   28  GLY28      -0.1942
     33  CA       103.8560   49.8780   10.3280 C.3    28  GLY28       0.2014
     34  C        104.0910   49.6310    8.8610 C.2    28  GLY28       0.2638
     35  O        104.7440   48.6590    8.4840 O.2    28  GLY28      -0.2714
     36  N        103.5990   50.5250    8.0240 N.am   29  VAL29      -0.1977
     37  CA       103.8030   50.3860    6.5950 C.3    29  VAL29       0.1596
     38  C        104.6750   51.5490    6.1440 C.2    29  VAL29       0.2287
     39  O        104.6310   52.6260    6.7390 O.2    29  VAL29      -0.2864
     40  CB       102.4600   50.3870    5.8470 C.3    29  VAL29       0.0276
     41  CG1      102.6840   50.4420    4.3560 C.3    29  VAL29       0.0022
     42  CG2      101.6910   49.1380    6.1900 C.3    29  VAL29       0.0022
     43  N        103.8430   36.7160   10.3530 N.3    95  THR95      -0.1218
     44  CA       102.9720   36.3460   11.4520 C.3    95  THR95       0.1862
     45  C        102.7160   34.8350   11.4070 C.2    95  THR95       0.2287
     46  O        102.9180   34.1390   12.4050 O.2    95  THR95      -0.2866
     47  CB       101.6580   37.1500   11.3980 C.3    95  THR95       0.1770
     48  OG1      101.9750   38.5490   11.3680 O.3    95  THR95      -0.2211
     49  CG2      100.7760   36.8630   12.6240 C.3    95  THR95       0.0375
     50  N        106.0130   43.5980   20.1590 N.3   121  TRP121     -0.1241
     51  CA       104.8890   43.6050   19.2260 C.3   121  TRP121      0.1605
     52  C        103.6910   42.9290   19.9000 C.2   121  TRP121      0.2264
     53  O        103.7500   41.7430   20.2330 O.2   121  TRP121     -0.2867
     54  CB       105.2850   42.8270   17.9710 C.3   121  TRP121      0.0550
     55  CG       104.4750   43.1290   16.7630 C.ar  121  TRP121      0.0003
     56  CD1      104.0850   44.3570   16.3240 C.ar  121  TRP121      0.0946
     57  CD2      103.9720   42.1820   15.8140 C.ar  121  TRP121      0.0152
     58  NE1      103.3700   44.2340   15.1570 N.ar  121  TRP121     -0.2442
     59  CE2      103.2860   42.9120   14.8230 C.ar  121  TRP121      0.0810
     60  CE3      104.0360   40.7890   15.7080 C.ar  121  TRP121      0.0012
     61  CZ2      102.6690   42.2930   13.7350 C.ar  121  TRP121      0.0191
     62  CZ3      103.4180   40.1750   14.6250 C.ar  121  TRP121      0.0001
     63  CH2      102.7440   40.9280   13.6530 C.ar  121  TRP121      0.0015
     64  N        100.9890   41.6060   18.9150 N.3   123  ASN123     -0.1240
     65  CA       100.5740   40.3410   18.3100 C.3   123  ASN123      0.1653
     66  C        101.3400   39.1380   18.8450 C.2   123  ASN123      0.2266
     67  O        100.9130   38.0040   18.6680 O.2   123  ASN123     -0.2867
     68  CB       100.7010   40.3930   16.7900 C.3   123  ASN123      0.1155
     69  CG        99.6330   41.2510   16.1380 C.2   123  ASN123      0.2627
     70  OD1       99.6380   41.4350   14.9200 O.2   123  ASN123     -0.2716
     71  ND2       98.7090   41.7790   16.9360 N.am  123  ASN123     -0.0877
     72  N        110.3440   46.4960   17.3410 N.3   174  ASN174     -0.1240
     73  CA       108.9830   47.0190   17.2910 C.3   174  ASN174      0.1653
     74  C        108.4570   46.7830   18.7080 C.2   174  ASN174      0.2266
     75  O        108.4820   45.6460   19.1900 O.2   174  ASN174     -0.2867
     76  CB       108.1710   46.2090   16.2670 C.3   174  ASN174      0.1155
     77  CG       106.8230   46.8250   15.9580 C.2   174  ASN174      0.2627
     78  OD1      106.4310   47.8310   16.5570 O.2   174  ASN174     -0.2716
     79  ND2      106.1110   46.2360   15.0030 N.am  174  ASN174     -0.0877
     80  N        112.1160   43.4230    9.6310 N.3   205  TYR205     -0.1241
     81  CA       112.6050   44.6480    9.0070 C.3   205  TYR205      0.1605
     82  C        114.0560   44.5990    8.5200 C.2   205  TYR205      0.2264
     83  O        114.7720   45.5990    8.6010 O.2   205  TYR205     -0.2867
     84  CB       112.4350   45.8240    9.9770 C.3   205  TYR205      0.0534
     85  CG       111.0010   46.1670   10.2930 C.ar  205  TYR205     -0.0201
     86  CD1      110.2860   47.0560    9.4920 C.ar  205  TYR205     -0.0009
     87  CD2      110.3570   45.6030   11.3910 C.ar  205  TYR205     -0.0009
     88  CE1      108.9610   47.3730    9.7780 C.ar  205  TYR205      0.0417
     89  CE2      109.0340   45.9120   11.6870 C.ar  205  TYR205      0.0417
     90  CZ       108.3440   46.7950   10.8760 C.ar  205  TYR205      0.1957
     91  OH       107.0310   47.0820   11.1460 O.3   205  TYR205     -0.2866
     92  N        107.4790   43.9260    4.5620 N.3   237  LYS237     -0.1245
     93  CA       108.0350   45.2690    4.5280 C.3   237  LYS237      0.1561
     94  C        109.2180   45.4790    3.5910 C.2   237  LYS237      0.2260
     95  O        109.1700   46.3700    2.7480 O.2   237  LYS237     -0.2867
     96  CB       108.3820   45.7540    5.9380 C.3   237  LYS237      0.0271
     97  CG       107.1770   45.9570    6.8510 C.3   237  LYS237      0.0035
     98  CD       107.0440   44.8320    7.8620 C.3   237  LYS237      0.0206
     99  CE       105.8510   45.0590    8.7880 C.3   237  LYS237      0.1093
    100  NZ       106.0270   44.3790   10.0690 N.3   237  LYS237     -0.1314
    101  N        103.1410   43.4220    1.4450 N.3   242  TYR242     -0.1241
    102  CA       102.2870   43.2110    2.6170 C.3   242  TYR242      0.1605
    103  C        101.0560   42.3150    2.4150 C.2   242  TYR242      0.2264
    104  O        100.9000   41.3050    3.1050 O.2   242  TYR242     -0.2867
    105  CB       101.8130   44.5660    3.1380 C.3   242  TYR242      0.0534
    106  CG       102.9020   45.6030    3.3050 C.ar  242  TYR242     -0.0201
    107  CD1      103.3220   46.3820    2.2310 C.ar  242  TYR242     -0.0009
    108  CD2      103.4680   45.8500    4.5500 C.ar  242  TYR242     -0.0009
    109  CE1      104.2680   47.3800    2.3970 C.ar  242  TYR242      0.0417
    110  CE2      104.4140   46.8460    4.7230 C.ar  242  TYR242      0.0417
    111  CZ       104.8060   47.6080    3.6450 C.ar  242  TYR242      0.1957
    112  OH       105.7170   48.6220    3.8220 O.3   242  TYR242     -0.2866
    113  N        101.0870   38.2180    1.6250 N.3   245  ARG245     -0.1245
    114  CA       101.2500   37.2760    2.7230 C.3   245  ARG245      0.1563
    115  C        102.3760   36.2910    2.4620 C.2   245  ARG245      0.2260
    116  O        102.1450   35.1050    2.2120 O.2   245  ARG245     -0.2867
    117  CB        99.9390   36.5290    3.0090 C.3   245  ARG245      0.0307
    118  CG        98.7070   37.4220    3.1270 C.3   245  ARG245      0.0489
    119  CD        98.9370   38.6300    4.0240 C.3   245  ARG245      0.2205
    120  NE        99.2470   38.2750    5.4080 N.pl3 245  ARG245     -0.0865
    121  CZ       100.2270   38.8300    6.1220 C.cat 245  ARG245      0.5346
    122  NH1      101.0060   39.7630    5.5910 N.pl3 245  ARG245      0.1354
    123  NH2      100.4160   38.4680    7.3810 N.pl3 245  ARG245      0.1354
    124  N        104.0120   55.2940   20.0060 N.3   365  ARG365     -0.1245
    125  CA       104.8540   54.7080   18.9640 C.3   365  ARG365      0.1563
    126  C        104.5080   55.4450   17.6870 C.2   365  ARG365      0.2260
    127  O        103.3390   55.4680   17.2830 O.2   365  ARG365     -0.2867
    128  CB       104.5750   53.2140   18.7590 C.3   365  ARG365      0.0307
    129  CG       105.5080   52.5670   17.7250 C.3   365  ARG365      0.0489
    130  CD       104.9720   51.2440   17.1820 C.3   365  ARG365      0.2205
    131  NE       103.8610   51.4380   16.2550 N.pl3 365  ARG365     -0.0865
    132  CZ       103.3530   50.4900   15.4710 C.cat 365  ARG365      0.5346
    133  NH1      103.8370   49.2570   15.4970 N.pl3 365  ARG365      0.1354
    134  NH2      102.3990   50.7930   14.6080 N.pl3 365  ARG365      0.1354
@<TRIPOS>BOND
     1   101   102    1
     2   113   114    1
     3   116   115    2
     4   107   109   ar
     5   107   106   ar
     6   109   111   ar
     7   103   102    1
     8   103   104    2
     9   115   114    1
    10   102   105    1
    11   114   117    1
    12    95    94    2
    13   117   118    1
    14   118   119    1
    15   105   106    1
    16   106   108   ar
    17    94    93    1
    18   111   112    1
    19   111   110   ar
    20   119   120    1
    21    41    40    1
    22    93    92    1
    23    93    96    1
    24   108   110   ar
    25   120   121    2
    26   122   121    1
    27    40    42    1
    28    40    37    1
    29    96    97    1
    30   121   123    1
    31    38    37    1
    32    38    39    2
    33    37    36    1
    34    97    98    1
    35    98    99    1
    36    36    34   am
    37    35    34    2
    38    82    83    2
    39    82    81    1
    40    99   100    1
    41    34    33    1
    42    81    80    1
    43    81    84    1
    44    86    88   ar
    45    86    85   ar
    46    30    29    1
    47    88    90   ar
    48    28    27    2
    49    84    85    1
    50    29    31    1
    51    29    26    1
    52    85    87   ar
    53    33    32    1
    54    43    44    1
    55    27    32   am
    56    27    26    1
    57    90    91    1
    58    90    89   ar
    59    24    22    1
    60    26    25    1
    61    48    47    1
    62    87    89   ar
    63    47    44    1
    64    47    49    1
    65    45    44    1
    66    45    46    2
    67    23    22    1
    68    22    21    1
    69    20    19    2
    70    21    18    1
    71    18    19    1
    72    18    17    1
    73    63    61   ar
    74    63    62   ar
    75    61    59   ar
    76    12    11    2
    77    17    11   am
    78    15    13    1
    79     8     6   ar
    80   134   132    1
    81    62    60   ar
    82    11    10    1
    83    59    58   ar
    84    59    57   ar
    85    70    69    2
    86    79    77   am
    87    58    56   ar
    88     6     5    1
    89     6     7   ar
    90   132   133    1
    91   132   131    2
    92     5     2    1
    93    13    10    1
    94    13    14    1
    95    60    57   ar
    96    57    55   ar
    97    77    76    1
    98    77    78    2
    99    10     9    1
   100    69    68    1
   101    69    71   am
   102   131   130    1
   103    76    73    1
   104     4     3    2
   105    56    55   ar
   106    16    14    1
   107    55    54    1
   108    68    65    1
   109     2     3    1
   110     2     1    1
   111   130   129    1
   112   127   126    2
   113    73    72    1
   114    73    74    1
   115   126   125    1
   116   129   128    1
   117    54    51    1
   118    65    66    1
   119    65    64    1
   120    67    66    2
   121    74    75    2
   122   128   125    1
   123   125   124    1
   124    51    52    1
   125    51    50    1
   126    52    53    2
