@<TRIPOS>MOLECULE
tmp/2ay3B02.pdb
 133 125 0 0 0
SMALL
GASTEIGER

@<TRIPOS>ATOM
      1  N         92.1370   44.6820   17.4520 N.3    11  ASP11      -0.1239
      2  CA        93.5480   45.0340   17.4680 C.3    11  ASP11       0.1674
      3  C         93.7060   46.5560   17.4830 C.2    11  ASP11       0.2266
      4  O         93.2330   47.2560   16.5830 O.2    11  ASP11      -0.2867
      5  CB        94.2720   44.4430   16.2510 C.3    11  ASP11       0.1410
      6  CG        95.7860   44.4870   16.3840 C.2    11  ASP11       0.3668
      7  OD1       96.3940   45.5420   16.0950 O.co2  11  ASP11      -0.2456
      8  OD2       96.3800   43.4590   16.7580 O.co2  11  ASP11      -0.2456
      9  N         96.3680   48.6730   16.9790 N.3    13  ILE13      -0.1231
     10  CA        97.0220   49.2990   15.8330 C.3    13  ILE13       0.1692
     11  C         96.0650   49.4080   14.6470 C.2    13  ILE13       0.2591
     12  O         95.9130   50.4810   14.0530 O.2    13  ILE13      -0.2718
     13  CB        98.2960   48.5330   15.3970 C.3    13  ILE13       0.0266
     14  CG1       99.2310   48.3400   16.5950 C.3    13  ILE13       0.0019
     15  CG2       99.0310   49.3130   14.3110 C.3    13  ILE13       0.0020
     16  CD1      100.5360   47.6430   16.2660 C.3    13  ILE13       0.0001
     17  N         95.3960   48.3050   14.3280 N.am   14  LEU14      -0.1980
     18  CA        94.4500   48.2870   13.2190 C.3    14  LEU14       0.1596
     19  C         93.1760   49.0540   13.5400 C.2    14  LEU14       0.2287
     20  O         92.4600   49.4680   12.6320 O.2    14  LEU14      -0.2864
     21  CB        94.1070   46.8560   12.8050 C.3    14  LEU14       0.0297
     22  CG        95.2500   45.9720   12.3010 C.3    14  LEU14       0.0022
     23  CD1       94.6440   44.7180   11.6870 C.3    14  LEU14       0.0001
     24  CD2       96.1130   46.7140   11.2760 C.3    14  LEU14       0.0001
     25  N         99.8160   52.3810   11.8800 N.3    27  VAL27      -0.1231
     26  CA       100.2230   51.1200   11.2540 C.3    27  VAL27       0.1692
     27  C        101.6070   51.1370   10.5980 C.2    27  VAL27       0.2593
     28  O        101.9420   52.0240    9.8120 O.2    27  VAL27      -0.2718
     29  CB        99.1380   50.5870   10.2750 C.3    27  VAL27       0.0266
     30  CG1       99.1250   51.3810    8.9860 C.3    27  VAL27       0.0020
     31  CG2       99.3490   49.1060   10.0060 C.3    27  VAL27       0.0020
     32  N        102.4020   50.1360   10.9500 N.am   28  GLY28      -0.1942
     33  CA       103.7560   50.0210   10.4530 C.3    28  GLY28       0.2014
     34  C        103.9030   49.6620    8.9970 C.2    28  GLY28       0.2638
     35  O        104.3130   48.5520    8.6520 O.2    28  GLY28      -0.2714
     36  N        103.5920   50.6170    8.1390 N.am   29  VAL29      -0.1977
     37  CA       103.7000   50.4300    6.7040 C.3    29  VAL29       0.1596
     38  C        104.5420   51.5920    6.2120 C.2    29  VAL29       0.2287
     39  O        104.4300   52.6970    6.7400 O.2    29  VAL29      -0.2864
     40  CB       102.3030   50.4760    6.0410 C.3    29  VAL29       0.0276
     41  CG1      102.4220   50.8160    4.5830 C.3    29  VAL29       0.0022
     42  CG2      101.6060   49.1380    6.2030 C.3    29  VAL29       0.0022
     43  N        103.6640   36.5970   10.3540 N.3    95  THR95      -0.1218
     44  CA       102.7510   36.2450   11.4350 C.3    95  THR95       0.1862
     45  C        102.4710   34.7420   11.3850 C.2    95  THR95       0.2287
     46  O        102.5110   34.0640   12.4140 O.2    95  THR95      -0.2866
     47  CB       101.4220   37.0520   11.3520 C.3    95  THR95       0.1770
     48  OG1      101.7040   38.4580   11.4750 O.3    95  THR95      -0.2211
     49  CG2      100.4600   36.6270   12.4790 C.3    95  THR95       0.0375
     50  N        105.7590   43.4150   20.2120 N.3   121  TRP121     -0.1241
     51  CA       104.6590   43.5080   19.2540 C.3   121  TRP121      0.1605
     52  C        103.4640   42.8310   19.9050 C.2   121  TRP121      0.2264
     53  O        103.5090   41.6420   20.2210 O.2   121  TRP121     -0.2867
     54  CB       105.0240   42.7840   17.9500 C.3   121  TRP121      0.0550
     55  CG       104.1310   43.1120   16.7760 C.ar  121  TRP121      0.0003
     56  CD1      103.6940   44.3510   16.4030 C.ar  121  TRP121      0.0946
     57  CD2      103.6220   42.1960   15.7920 C.ar  121  TRP121      0.0152
     58  NE1      102.9600   44.2630   15.2520 N.ar  121  TRP121     -0.2442
     59  CE2      102.9010   42.9550   14.8530 C.ar  121  TRP121      0.0810
     60  CE3      103.7100   40.8100   15.6150 C.ar  121  TRP121      0.0012
     61  CZ2      102.2760   42.3770   13.7500 C.ar  121  TRP121      0.0191
     62  CZ3      103.0860   40.2380   14.5220 C.ar  121  TRP121      0.0001
     63  CH2      102.3790   41.0180   13.6030 C.ar  121  TRP121      0.0015
     64  N        100.8100   41.5090   18.9060 N.3   123  ASN123     -0.1240
     65  CA       100.3850   40.2490   18.3180 C.3   123  ASN123      0.1653
     66  C        101.1120   39.0220   18.8230 C.2   123  ASN123      0.2266
     67  O        100.5960   37.9020   18.7380 O.2   123  ASN123     -0.2867
     68  CB       100.4170   40.3110   16.7990 C.3   123  ASN123      0.1155
     69  CG        99.0220   40.4180   16.2020 C.2   123  ASN123      0.2627
     70  OD1       98.2040   39.4910   16.3060 O.2   123  ASN123     -0.2716
     71  ND2       98.7290   41.5630   15.5990 N.am  123  ASN123     -0.0877
     72  N        110.1600   46.4690   17.3330 N.3   174  ASN174     -0.1240
     73  CA       108.8120   47.0270   17.2710 C.3   174  ASN174      0.1653
     74  C        108.2100   46.7700   18.6500 C.2   174  ASN174      0.2266
     75  O        108.1730   45.6200   19.0990 O.2   174  ASN174     -0.2867
     76  CB       108.0160   46.2840   16.1890 C.3   174  ASN174      0.1155
     77  CG       106.6060   46.8160   16.0110 C.2   174  ASN174      0.2627
     78  OD1      106.2000   47.7680   16.6710 O.2   174  ASN174     -0.2716
     79  ND2      105.8590   46.2120   15.0950 N.am  174  ASN174     -0.0877
     80  N        111.9910   43.2840    9.5600 N.3   205  TYR205     -0.1241
     81  CA       112.4570   44.5280    8.9670 C.3   205  TYR205      0.1605
     82  C        113.9060   44.4990    8.5040 C.2   205  TYR205      0.2264
     83  O        114.6160   45.5110    8.5920 O.2   205  TYR205     -0.2867
     84  CB       112.2630   45.6870    9.9450 C.3   205  TYR205      0.0534
     85  CG       110.8210   46.0700   10.1860 C.ar  205  TYR205     -0.0201
     86  CD1      110.1890   47.0140    9.3800 C.ar  205  TYR205     -0.0009
     87  CD2      110.0930   45.5000   11.2380 C.ar  205  TYR205     -0.0009
     88  CE1      108.8730   47.3770    9.6140 C.ar  205  TYR205      0.0417
     89  CE2      108.7780   45.8540   11.4770 C.ar  205  TYR205      0.0417
     90  CZ       108.1700   46.7930   10.6630 C.ar  205  TYR205      0.1957
     91  OH       106.8540   47.1280   10.8740 O.3   205  TYR205     -0.2866
     92  N        107.3220   43.8680    4.4430 N.3   237  LYS237     -0.1245
     93  CA       107.8580   45.2180    4.4040 C.3   237  LYS237      0.1561
     94  C        109.0840   45.4750    3.5340 C.2   237  LYS237      0.2260
     95  O        109.1320   46.4890    2.8420 O.2   237  LYS237     -0.2867
     96  CB       108.0820   45.7400    5.8280 C.3   237  LYS237      0.0271
     97  CG       106.8070   45.8390    6.6570 C.3   237  LYS237      0.0035
     98  CD       106.8380   44.9140    7.8730 C.3   237  LYS237      0.0206
     99  CE       105.5350   45.0040    8.6670 C.3   237  LYS237      0.1093
    100  NZ       105.6580   44.4140    9.9980 N.3   237  LYS237     -0.1314
    101  N        100.8830   38.1750    1.6440 N.3   245  ARG245     -0.1245
    102  CA       101.0430   37.2640    2.7650 C.3   245  ARG245      0.1563
    103  C        102.1650   36.2620    2.5090 C.2   245  ARG245      0.2260
    104  O        101.9270   35.0690    2.3170 O.2   245  ARG245     -0.2867
    105  CB        99.7190   36.5510    3.0790 C.3   245  ARG245      0.0307
    106  CG        98.5110   37.4770    3.2250 C.3   245  ARG245      0.0489
    107  CD        98.7510   38.6600    4.1790 C.3   245  ARG245      0.2205
    108  NE        99.0850   38.2530    5.5450 N.pl3 245  ARG245     -0.0865
    109  CZ       100.1310   38.7140    6.2320 C.cat 245  ARG245      0.5346
    110  NH1      100.9540   39.6030    5.6900 N.pl3 245  ARG245      0.1354
    111  NH2      100.3770   38.2610    7.4560 N.pl3 245  ARG245      0.1354
    112  N        109.7100   52.5340   13.6020 N.3   339  PHE339     -0.1241
    113  CA       109.0830   53.1160   14.7770 C.3   339  PHE339      0.1605
    114  C        110.0420   53.7300   15.7740 C.2   339  PHE339      0.2264
    115  O        111.2630   53.5320   15.7200 O.2   339  PHE339     -0.2867
    116  CB       108.2460   52.0620   15.5020 C.3   339  PHE339      0.0534
    117  CG       107.4600   51.1800   14.5900 C.ar  339  PHE339     -0.0203
    118  CD1      106.2830   51.6260   14.0100 C.ar  339  PHE339     -0.0042
    119  CD2      107.8950   49.8910   14.3190 C.ar  339  PHE339     -0.0042
    120  CE1      105.5550   50.8010   13.1730 C.ar  339  PHE339     -0.0003
    121  CE2      107.1730   49.0570   13.4800 C.ar  339  PHE339     -0.0003
    122  CZ       106.0030   49.5090   12.9070 C.ar  339  PHE339     -0.0000
    123  N        103.7230   55.3000   20.0840 N.3   365  ARG365     -0.1245
    124  CA       104.5310   54.7370   19.0060 C.3   365  ARG365      0.1563
    125  C        104.2170   55.4780   17.7140 C.2   365  ARG365      0.2260
    126  O        103.0560   55.5300   17.2880 O.2   365  ARG365     -0.2867
    127  CB       104.2450   53.2460   18.7980 C.3   365  ARG365      0.0307
    128  CG       105.1990   52.5940   17.7840 C.3   365  ARG365      0.0489
    129  CD       104.6930   51.2510   17.2590 C.3   365  ARG365      0.2205
    130  NE       103.7410   51.3810   16.1540 N.pl3 365  ARG365     -0.0865
    131  CZ       103.1700   50.3580   15.5250 C.cat 365  ARG365      0.5346
    132  NH1      103.4380   49.1120   15.8830 N.pl3 365  ARG365      0.1354
    133  NH2      102.3400   50.5870   14.5200 N.pl3 365  ARG365      0.1354
@<TRIPOS>BOND
     1   101   102    1
     2   104   103    2
     3   103   102    1
     4   102   105    1
     5    95    94    2
     6   105   106    1
     7   106   107    1
     8    94    93    1
     9   107   108    1
    10    93    92    1
    11    93    96    1
    12    41    40    1
    13   108   109    2
    14   110   109    1
    15    96    97    1
    16    40    42    1
    17    40    37    1
    18    38    37    1
    19    38    39    2
    20   109   111    1
    21    97    98    1
    22    37    36    1
    23    98    99    1
    24    36    34   am
    25    82    83    2
    26    82    81    1
    27    35    34    2
    28    99   100    1
    29    81    80    1
    30    81    84    1
    31    30    29    1
    32    34    33    1
    33    86    88   ar
    34    86    85   ar
    35    88    90   ar
    36    28    27    2
    37    84    85    1
    38    31    29    1
    39    85    87   ar
    40    29    26    1
    41    43    44    1
    42    33    32    1
    43    27    32   am
    44    27    26    1
    45    90    91    1
    46    90    89   ar
    47    87    89   ar
    48    26    25    1
    49    24    22    1
    50    47    44    1
    51    47    48    1
    52    47    49    1
    53    45    44    1
    54    45    46    2
    55    23    22    1
    56    22    21    1
    57    20    19    2
    58    21    18    1
    59   122   120   ar
    60   122   121   ar
    61   120   118   ar
    62    18    19    1
    63    18    17    1
    64   121   119   ar
    65   112   113    1
    66    63    61   ar
    67    63    62   ar
    68    61    59   ar
    69   118   117   ar
    70    12    11    2
    71    15    13    1
    72   119   117   ar
    73    17    11   am
    74   133   131    1
    75    62    60   ar
    76   117   116    1
    77    11    10    1
    78   113   116    1
    79   113   114    1
    80    59    58   ar
    81    59    57   ar
    82    79    77   am
    83    58    56   ar
    84    13    10    1
    85    13    14    1
    86   131   132    1
    87   131   130    2
    88    71    69   am
    89    60    57   ar
    90   115   114    2
    91    57    55   ar
    92    10     9    1
    93    77    76    1
    94    77    78    2
    95     7     6   ar
    96   130   129    1
    97    76    73    1
    98    69    70    2
    99    69    68    1
   100     5     6    1
   101     5     2    1
   102    16    14    1
   103     6     8   ar
   104    56    55   ar
   105     4     3    2
   106    55    54    1
   107    68    65    1
   108   129   128    1
   109    73    72    1
   110    73    74    1
   111   126   125    2
   112     1     2    1
   113     2     3    1
   114   125   124    1
   115   128   127    1
   116    54    51    1
   117    65    66    1
   118    65    64    1
   119    74    75    2
   120    67    66    2
   121   127   124    1
   122   124   123    1
   123    51    52    1
   124    51    50    1
   125    52    53    2
