@<TRIPOS>MOLECULE
tmp/2ay4A00.pdb
 131 125 0 0 0
SMALL
GASTEIGER

@<TRIPOS>ATOM
      1  N         92.6590   29.2080    0.8470 N.3    99  GLY99      -0.1210
      2  CA        92.0740   28.0410    0.2130 C.3    99  GLY99       0.1956
      3  C         90.9050   27.4510    1.0030 C.2    99  GLY99       0.2612
      4  O         90.5400   27.9320    2.0860 O.2    99  GLY99      -0.2717
      5  N         90.3060   26.4030    0.4490 N.am  100  GLY100     -0.1942
      6  CA        89.1930   25.7430    1.1020 C.3   100  GLY100      0.2014
      7  C         89.6220   25.0220    2.3640 C.2   100  GLY100      0.2639
      8  O         88.8430   24.9410    3.3120 O.2   100  GLY100     -0.2714
      9  N         90.8580   24.5160    2.3940 N.am  101  THR101     -0.1950
     10  CA        91.3600   23.8050    3.5690 C.3   101  THR101      0.1897
     11  C         91.4170   24.7600    4.7390 C.2   101  THR101      0.2313
     12  O         91.0860   24.3960    5.8660 O.2   101  THR101     -0.2863
     13  CB        92.7600   23.2300    3.3420 C.3   101  THR101      0.1794
     14  OG1       92.7400   22.3610    2.2050 O.3   101  THR101     -0.2208
     15  CG2       93.2200   22.4440    4.5670 C.3   101  THR101      0.0378
     16  N         87.9840   25.2670    6.0830 N.3   104  LEU104     -0.1245
     17  CA        87.5470   24.1490    6.9210 C.3   104  LEU104      0.1561
     18  C         88.1620   24.2810    8.3030 C.2   104  LEU104      0.2260
     19  O         87.4680   24.1880    9.3170 O.2   104  LEU104     -0.2867
     20  CB        87.9710   22.8100    6.3130 C.3   104  LEU104      0.0270
     21  CG        87.3510   22.3740    4.9860 C.3   104  LEU104      0.0019
     22  CD1       88.0310   21.1020    4.4870 C.3   104  LEU104      0.0001
     23  CD2       85.8560   22.1450    5.1760 C.3   104  LEU104      0.0001
     24  N         87.0550   12.9670    2.1390 N.3   127  TRP127     -0.1241
     25  CA        88.3760   13.4670    1.7570 C.3   127  TRP127      0.1605
     26  C         89.2350   13.2060    2.9950 C.2   127  TRP127      0.2264
     27  O         89.0070   13.8080    4.0480 O.2   127  TRP127     -0.2867
     28  CB        88.2720   14.9690    1.4750 C.3   127  TRP127      0.0550
     29  CG        89.4890   15.6220    0.8840 C.ar  127  TRP127      0.0003
     30  CD1       90.2500   15.1660   -0.1570 C.ar  127  TRP127      0.0946
     31  CD2       90.0400   16.8930    1.2570 C.ar  127  TRP127      0.0152
     32  NE1       91.2320   16.0800   -0.4580 N.ar  127  TRP127     -0.2442
     33  CE2       91.1290   17.1450    0.3930 C.ar  127  TRP127      0.0810
     34  CE3       89.7150   17.8420    2.2340 C.ar  127  TRP127      0.0012
     35  CZ2       91.8970   18.3090    0.4790 C.ar  127  TRP127      0.0191
     36  CZ3       90.4780   18.9980    2.3190 C.ar  127  TRP127      0.0001
     37  CH2       91.5580   19.2210    1.4440 C.ar  127  TRP127      0.0015
     38  N         79.3960   17.2250    1.8010 N.3   175  HIS175     -0.1241
     39  CA        80.0270   17.7570    0.6010 C.3   175  HIS175      0.1621
     40  C         78.8530   18.3690   -0.1760 C.2   175  HIS175      0.2264
     41  O         77.8520   17.6960   -0.4180 O.2   175  HIS175     -0.2867
     42  CB        80.6690   16.6400   -0.2310 C.3   175  HIS175      0.0745
     43  CG        81.8230   15.9600    0.4400 C.ar  175  HIS175      0.0817
     44  ND1       83.0620   15.8470   -0.1520 N.ar  175  HIS175     -0.2268
     45  CD2       81.9150   15.3160    1.6280 C.ar  175  HIS175      0.1154
     46  CE1       83.8660   15.1580    0.6370 C.ar  175  HIS175      0.1986
     47  NE2       83.1940   14.8250    1.7240 N.ar  175  HIS175     -0.2212
     48  N         84.0060   13.7960   -3.1110 N.3   180  ASN180     -0.1240
     49  CA        85.4010   13.3620   -3.2070 C.3   180  ASN180      0.1653
     50  C         85.5580   12.4030   -2.0270 C.2   180  ASN180      0.2266
     51  O         85.3100   12.7830   -0.8780 O.2   180  ASN180     -0.2867
     52  CB        86.3250   14.5840   -3.0420 C.3   180  ASN180      0.1155
     53  CG        87.8080   14.2460   -3.1830 C.2   180  ASN180      0.2627
     54  OD1       88.2080   13.0780   -3.1800 O.2   180  ASN180     -0.2716
     55  ND2       88.6330   15.2820   -3.2840 N.am  180  ASN180     -0.0877
     56  N         81.1700   21.4600    2.7460 N.3   208  ASP208     -0.1239
     57  CA        82.4220   21.5740    2.0020 C.3   208  ASP208      0.1674
     58  C         82.0900   21.7290    0.5170 C.2   208  ASP208      0.2266
     59  O         81.8130   20.7400   -0.1670 O.2   208  ASP208     -0.2867
     60  CB        83.2850   20.3230    2.2060 C.3   208  ASP208      0.1410
     61  CG        84.6880   20.4720    1.6270 C.2   208  ASP208      0.3668
     62  OD1       84.9000   21.2910    0.7090 O.co2 208  ASP208     -0.2456
     63  OD2       85.5930   19.7550    2.0890 O.co2 208  ASP208     -0.2456
     64  N         83.7780   22.5610   -2.7120 N.3   210  ALA210     -0.1231
     65  CA        85.0240   22.7370   -3.4480 C.3   210  ALA210      0.1694
     66  C         84.9510   22.5230   -4.9530 C.2   210  ALA210      0.2592
     67  O         85.8960   22.8700   -5.6700 O.2   210  ALA210     -0.2718
     68  CB        86.0960   21.8360   -2.8580 C.3   210  ALA210      0.0304
     69  N         83.8370   21.9820   -5.4390 N.am  211  TYR211     -0.1976
     70  CA        83.6990   21.7100   -6.8670 C.3   211  TYR211      0.1639
     71  C         82.4960   22.3380   -7.5590 C.2   211  TYR211      0.2290
     72  O         82.0030   21.7800   -8.5390 O.2   211  TYR211     -0.2864
     73  CB        83.6580   20.2000   -7.1020 C.3   211  TYR211      0.0560
     74  CG        84.9540   19.4910   -6.7910 C.ar  211  TYR211     -0.0198
     75  CD1       85.9650   19.4000   -7.7450 C.ar  211  TYR211     -0.0009
     76  CD2       85.1660   18.8970   -5.5490 C.ar  211  TYR211     -0.0009
     77  CE1       87.1520   18.7330   -7.4680 C.ar  211  TYR211      0.0417
     78  CE2       86.3530   18.2290   -5.2670 C.ar  211  TYR211      0.0417
     79  CZ        87.3360   18.1550   -6.2290 C.ar  211  TYR211      0.1957
     80  OH        88.5190   17.5290   -5.9390 O.3   211  TYR211     -0.2866
     81  N         85.8900   26.7470   -1.9790 N.3   240  SER240     -0.1217
     82  CA        87.2070   26.7250   -2.6020 C.3   240  SER240      0.1889
     83  C         87.1490   27.2690   -4.0310 C.2   240  SER240      0.2288
     84  O         86.2140   26.9730   -4.7850 O.2   240  SER240     -0.2866
     85  CB        87.7460   25.2900   -2.6220 C.3   240  SER240      0.2089
     86  OG        89.0390   25.2090   -3.2080 O.3   240  SER240     -0.2183
     87  N         90.0850   27.0490   -5.8620 N.3   242  SER242     -0.1202
     88  CA        91.1950   26.3170   -6.4610 C.3   242  SER242      0.2020
     89  C         90.8710   25.6110   -7.7660 C.2   242  SER242      0.2618
     90  O         91.5560   25.8310   -8.7680 O.2   242  SER242     -0.2717
     91  CB        91.7610   25.2860   -5.4750 C.3   242  SER242      0.2103
     92  OG        92.3300   25.9020   -4.3370 O.3   242  SER242     -0.2182
     93  N         89.8320   24.7770   -7.7620 N.am  243  LYS243     -0.1979
     94  CA        89.4690   24.0100   -8.9490 C.3   243  LYS243      0.1596
     95  C         88.5980   24.6890  -10.0030 C.2   243  LYS243      0.2287
     96  O         88.9780   24.7160  -11.1750 O.2   243  LYS243     -0.2864
     97  CB        88.8640   22.6590   -8.5600 C.3   243  LYS243      0.0298
     98  CG        89.8000   21.7290   -7.8050 C.3   243  LYS243      0.0038
     99  CD        89.4970   21.7440   -6.3260 C.3   243  LYS243      0.0206
    100  CE        90.2820   20.6820   -5.5760 C.3   243  LYS243      0.1093
    101  NZ        89.5860   20.3030   -4.3540 N.3   243  LYS243     -0.1314
    102  N         94.7580   26.8100   -8.0720 N.3   248  TYR248     -0.1241
    103  CA        95.1500   25.9280   -6.9810 C.3   248  TYR248      0.1605
    104  C         96.2040   26.5090   -6.0340 C.2   248  TYR248      0.2264
    105  O         95.9740   26.6060   -4.8280 O.2   248  TYR248     -0.2867
    106  CB        95.6630   24.6010   -7.5480 C.3   248  TYR248      0.0534
    107  CG        94.7540   23.9240   -8.5510 C.ar  248  TYR248     -0.0201
    108  CD1       94.7760   24.2870   -9.9000 C.ar  248  TYR248     -0.0009
    109  CD2       93.9080   22.8830   -8.1650 C.ar  248  TYR248     -0.0009
    110  CE1       93.9790   23.6260  -10.8410 C.ar  248  TYR248      0.0417
    111  CE2       93.1100   22.2160   -9.0930 C.ar  248  TYR248      0.0417
    112  CZ        93.1520   22.5890  -10.4300 C.ar  248  TYR248      0.1957
    113  OH        92.3920   21.9000  -11.3550 O.3   248  TYR248     -0.2866
    114  N         95.8710   29.7800   -3.4340 N.3   251  ARG251     -0.1231
    115  CA        95.2340   29.5570   -2.1320 C.3   251  ARG251      0.1694
    116  C         94.0650   30.5000   -1.8530 C.2   251  ARG251      0.2592
    117  O         94.1230   31.3240   -0.9410 O.2   251  ARG251     -0.2718
    118  CB        96.2710   29.6230   -1.0000 C.3   251  ARG251      0.0321
    119  CG        97.5410   28.8140   -1.2700 C.3   251  ARG251      0.0489
    120  CD        97.2230   27.3920   -1.6930 C.3   251  ARG251      0.2205
    121  NE        96.5610   26.6560   -0.6200 N.pl3 251  ARG251     -0.0865
    122  CZ        95.5530   25.8080   -0.7900 C.cat 251  ARG251      0.5346
    123  NH1       95.0600   25.5700   -2.0000 N.pl3 251  ARG251      0.1354
    124  NH2       95.0450   25.2000    0.2650 N.pl3 251  ARG251      0.1354
    125  N         92.9830   30.3250   -2.6090 N.am  252  THR252     -0.1953
    126  CA        91.7940   31.1570   -2.4620 C.3   252  THR252      0.1897
    127  C         90.5590   30.3590   -2.0060 C.2   252  THR252      0.2313
    128  O         90.0760   29.4680   -2.7130 O.2   252  THR252     -0.2863
    129  CB        91.4860   31.8950   -3.7760 C.3   252  THR252      0.1794
    130  OG1       92.6920   32.4840   -4.2870 O.3   252  THR252     -0.2208
    131  CG2       90.4530   32.9910   -3.5410 C.3   252  THR252      0.0378
@<TRIPOS>BOND
     1   113   112    1
     2    96    95    2
     3   110   112   ar
     4   110   108   ar
     5   112   111   ar
     6    95    94    1
     7   108   107   ar
     8   111   109   ar
     9    94    97    1
    10    94    93    1
    11    90    89    2
    12    97    98    1
    13   107   109   ar
    14   107   106    1
    15    72    71    2
    16   102   103    1
    17    98    99    1
    18    89    93   am
    19    89    88    1
    20    75    77   ar
    21    75    74   ar
    22    71    70    1
    23   106   103    1
    24    77    79   ar
    25    73    70    1
    26    73    74    1
    27   103   104    1
    28    70    69    1
    29    74    76   ar
    30    88    87    1
    31    88    91    1
    32    99   100    1
    33    79    80    1
    34    79    78   ar
    35   104   105    2
    36    67    66    2
    37   100   101    1
    38    76    78   ar
    39    91    92    1
    40    69    66   am
    41    66    65    1
    42    84    83    2
    43   130   129    1
    44    83    82    1
    45   129   131    1
    46   129   126    1
    47    65    68    1
    48    65    64    1
    49   114   115    1
    50    55    53   am
    51    86    85    1
    52    49    48    1
    53    49    52    1
    54    49    50    1
    55    53    54    2
    56    53    52    1
    57   128   127    2
    58    85    82    1
    59   125   126    1
    60   125   116   am
    61    82    81    1
    62   126   127    1
    63   115   116    1
    64   115   118    1
    65    50    51    2
    66   123   122    1
    67   116   117    2
    68   120   119    1
    69   120   121    1
    70   119   118    1
    71   122   121    2
    72   122   124    1
    73    32    30   ar
    74    32    33   ar
    75    41    40    2
    76    42    43    1
    77    42    39    1
    78    40    39    1
    79    59    58    2
    80    30    29   ar
    81    44    43   ar
    82    44    46   ar
    83     2     1    1
    84     2     3    1
    85    33    35   ar
    86    33    31   ar
    87    43    45   ar
    88     5     3   am
    89     5     6    1
    90    35    37   ar
    91    58    57    1
    92    39    38    1
    93    46    47   ar
    94    62    61   ar
    95    29    31   ar
    96    29    28    1
    97     3     4    2
    98     6     7    1
    99    31    34   ar
   100    37    36   ar
   101    28    25    1
   102    61    63   ar
   103    61    60    1
   104    45    47   ar
   105    25    24    1
   106    25    26    1
   107    57    60    1
   108    57    56    1
   109    14    13    1
   110    34    36   ar
   111     7     9   am
   112     7     8    2
   113     9    10    1
   114    26    27    2
   115    13    10    1
   116    13    15    1
   117    10    11    1
   118    22    21    1
   119    11    12    2
   120    21    23    1
   121    21    20    1
   122    16    17    1
   123    20    17    1
   124    17    18    1
   125    18    19    2
