@<TRIPOS>MOLECULE
tmp/2ay4B01.pdb
 145 137 0 0 0
SMALL
GASTEIGER

@<TRIPOS>ATOM
      1  N         92.6880   44.5700   17.4850 N.3    11  ASP11      -0.1239
      2  CA        94.0910   44.9370   17.4960 C.3    11  ASP11       0.1674
      3  C         94.2270   46.4540   17.6370 C.2    11  ASP11       0.2266
      4  O         93.5980   47.2220   16.9010 O.2    11  ASP11      -0.2867
      5  CB        94.8060   44.4590   16.2300 C.3    11  ASP11       0.1410
      6  CG        96.3100   44.7010   16.2860 C.2    11  ASP11       0.3668
      7  OD1       97.0200   43.8940   16.9260 O.co2  11  ASP11      -0.2456
      8  OD2       96.7840   45.6960   15.6950 O.co2  11  ASP11      -0.2456
      9  N         96.9170   48.6190   17.0250 N.3    13  ILE13      -0.1231
     10  CA        97.5080   49.2970   15.8710 C.3    13  ILE13       0.1692
     11  C         96.5200   49.4220   14.7160 C.2    13  ILE13       0.2591
     12  O         96.3820   50.4910   14.1140 O.2    13  ILE13      -0.2718
     13  CB        98.7860   48.5590   15.3850 C.3    13  ILE13       0.0266
     14  CG1       99.7170   48.3010   16.5780 C.3    13  ILE13       0.0019
     15  CG2       99.5080   49.3870   14.3100 C.3    13  ILE13       0.0020
     16  CD1      100.8800   47.3960   16.2750 C.3    13  ILE13       0.0001
     17  N         95.8170   48.3340   14.4260 N.am   14  LEU14      -0.1980
     18  CA        94.8490   48.3210   13.3410 C.3    14  LEU14       0.1596
     19  C         93.6160   49.1550   13.6850 C.2    14  LEU14       0.2287
     20  O         92.9830   49.7320   12.7980 O.2    14  LEU14      -0.2864
     21  CB        94.4570   46.8800   13.0020 C.3    14  LEU14       0.0297
     22  CG        95.6160   45.9560   12.6070 C.3    14  LEU14       0.0022
     23  CD1       95.1030   44.5440   12.3640 C.3    14  LEU14       0.0001
     24  CD2       96.3230   46.5040   11.3740 C.3    14  LEU14       0.0001
     25  N        100.1400   52.4910   11.9570 N.3    27  VAL27      -0.1231
     26  CA       100.5070   51.2270   11.3150 C.3    27  VAL27       0.1692
     27  C        101.9040   51.2300   10.6780 C.2    27  VAL27       0.2593
     28  O        102.2780   52.1470    9.9470 O.2    27  VAL27      -0.2718
     29  CB        99.4130   50.7640   10.3000 C.3    27  VAL27       0.0266
     30  CG1       99.4720   51.5730    9.0160 C.3    27  VAL27       0.0020
     31  CG2       99.5280   49.2750   10.0280 C.3    27  VAL27       0.0020
     32  N        102.6640   50.1870   10.9880 N.am   28  GLY28      -0.1942
     33  CA       104.0200   50.0500   10.5020 C.3    28  GLY28       0.2014
     34  C        104.1770   49.6810    9.0500 C.2    28  GLY28       0.2638
     35  O        104.5340   48.5520    8.7160 O.2    28  GLY28      -0.2714
     36  N        103.9320   50.6490    8.1840 N.am   29  VAL29      -0.1977
     37  CA       104.0730   50.4590    6.7510 C.3    29  VAL29       0.1596
     38  C        104.9220   51.6260    6.2580 C.2    29  VAL29       0.2287
     39  O        104.9420   52.6870    6.8760 O.2    29  VAL29      -0.2864
     40  CB       102.6960   50.4670    6.0500 C.3    29  VAL29       0.0276
     41  CG1      102.8650   50.4950    4.5480 C.3    29  VAL29       0.0022
     42  CG2      101.9120   49.2330    6.4450 C.3    29  VAL29       0.0022
     43  N        103.7910   36.6880   10.3630 N.3    95  THR95      -0.1218
     44  CA       102.9090   36.2730   11.4470 C.3    95  THR95       0.1862
     45  C        102.6530   34.7650   11.3230 C.2    95  THR95       0.2287
     46  O        102.6870   34.0350   12.3170 O.2    95  THR95      -0.2866
     47  CB       101.5730   37.0610   11.4250 C.3    95  THR95       0.1770
     48  OG1      101.8420   38.4590   11.6020 O.3    95  THR95      -0.2211
     49  CG2      100.6420   36.5860   12.5320 C.3    95  THR95       0.0375
     50  N        106.0720   43.4730   20.1730 N.3   121  TRP121     -0.1241
     51  CA       104.9160   43.5260   19.2770 C.3   121  TRP121      0.1605
     52  C        103.7240   42.8750   19.9870 C.2   121  TRP121      0.2264
     53  O        103.7880   41.7040   20.3760 O.2   121  TRP121     -0.2867
     54  CB       105.2410   42.7770   17.9810 C.3   121  TRP121      0.0550
     55  CG       104.3680   43.1130   16.8100 C.ar  121  TRP121      0.0003
     56  CD1      103.9320   44.3500   16.4380 C.ar  121  TRP121      0.0946
     57  CD2      103.8750   42.2020   15.8210 C.ar  121  TRP121      0.0152
     58  NE1      103.2070   44.2680   15.2740 N.ar  121  TRP121     -0.2442
     59  CE2      103.1580   42.9610   14.8730 C.ar  121  TRP121      0.0810
     60  CE3      103.9770   40.8180   15.6420 C.ar  121  TRP121      0.0012
     61  CZ2      102.5460   42.3850   13.7620 C.ar  121  TRP121      0.0191
     62  CZ3      103.3670   40.2420   14.5390 C.ar  121  TRP121      0.0001
     63  CH2      102.6600   41.0270   13.6110 C.ar  121  TRP121      0.0015
     64  N        100.9590   41.6520   18.9720 N.3   123  ASN123     -0.1240
     65  CA       100.5430   40.4300   18.3030 C.3   123  ASN123      0.1653
     66  C        101.3240   39.2020   18.7430 C.2   123  ASN123      0.2266
     67  O        100.9050   38.0770   18.4850 O.2   123  ASN123     -0.2867
     68  CB       100.6300   40.6130   16.7940 C.3   123  ASN123      0.1155
     69  CG        99.8300   41.8100   16.3150 C.2   123  ASN123      0.2627
     70  OD1      100.1230   42.9610   16.6710 O.2   123  ASN123     -0.2716
     71  ND2       98.8050   41.5500   15.5220 N.am  123  ASN123     -0.0877
     72  N        110.4070   46.5180   17.2460 N.3   174  ASN174     -0.1240
     73  CA       109.0270   46.9900   17.2190 C.3   174  ASN174      0.1653
     74  C        108.5410   46.7500   18.6510 C.2   174  ASN174      0.2266
     75  O        108.5620   45.6080   19.1190 O.2   174  ASN174     -0.2867
     76  CB       108.2240   46.1270   16.2350 C.3   174  ASN174      0.1155
     77  CG       106.8340   46.6590   15.9860 C.2   174  ASN174      0.2627
     78  OD1      106.3290   47.4800   16.7470 O.2   174  ASN174     -0.2716
     79  ND2      106.2080   46.1980   14.9180 N.am  174  ASN174     -0.0877
     80  N        112.1190   43.4290    9.6230 N.3   205  TYR205     -0.1241
     81  CA       112.5980   44.6230    8.9320 C.3   205  TYR205      0.1605
     82  C        114.0350   44.5970    8.4030 C.2   205  TYR205      0.2264
     83  O        114.6740   45.6450    8.3130 O.2   205  TYR205     -0.2867
     84  CB       112.4210   45.8480    9.8370 C.3   205  TYR205      0.0534
     85  CG       110.9860   46.2150   10.1540 C.ar  205  TYR205     -0.0201
     86  CD1      110.2420   47.0040    9.2780 C.ar  205  TYR205     -0.0009
     87  CD2      110.3830   45.8050   11.3490 C.ar  205  TYR205     -0.0009
     88  CE1      108.9350   47.3780    9.5830 C.ar  205  TYR205      0.0417
     89  CE2      109.0790   46.1770   11.6640 C.ar  205  TYR205      0.0417
     90  CZ       108.3650   46.9610   10.7750 C.ar  205  TYR205      0.1957
     91  OH       107.0870   47.3450   11.0820 O.3   205  TYR205     -0.2866
     92  N        107.5290   43.9650    4.5310 N.3   237  LYS237     -0.1245
     93  CA       108.0820   45.3080    4.5120 C.3   237  LYS237      0.1561
     94  C        109.2860   45.5250    3.5920 C.2   237  LYS237      0.2260
     95  O        109.2470   46.4270    2.7560 O.2   237  LYS237     -0.2867
     96  CB       108.3930   45.7920    5.9360 C.3   237  LYS237      0.0271
     97  CG       107.1620   45.9860    6.8350 C.3   237  LYS237      0.0035
     98  CD       107.0070   44.8810    7.8820 C.3   237  LYS237      0.0206
     99  CE       105.7710   45.1090    8.7670 C.3   237  LYS237      0.1093
    100  NZ       105.8920   44.4570   10.0710 N.3   237  LYS237     -0.1314
    101  N        103.1540   43.5230    1.2930 N.3   242  TYR242     -0.1241
    102  CA       102.3540   43.2570    2.4920 C.3   242  TYR242      0.1605
    103  C        101.1290   42.3570    2.2720 C.2   242  TYR242      0.2264
    104  O        101.0010   41.3100    2.9120 O.2   242  TYR242     -0.2867
    105  CB       101.8870   44.5770    3.1140 C.3   242  TYR242      0.0534
    106  CG       102.9630   45.6280    3.3200 C.ar  242  TYR242     -0.0201
    107  CD1      103.4110   46.4170    2.2600 C.ar  242  TYR242     -0.0009
    108  CD2      103.4820   45.8790    4.5870 C.ar  242  TYR242     -0.0009
    109  CE1      104.3400   47.4300    2.4630 C.ar  242  TYR242      0.0417
    110  CE2      104.4110   46.8890    4.7990 C.ar  242  TYR242      0.0417
    111  CZ       104.8320   47.6600    3.7360 C.ar  242  TYR242      0.1957
    112  OH       105.7290   48.6790    3.9450 O.3   242  TYR242     -0.2866
    113  N        101.1570   38.2490    1.5700 N.3   245  ARG245     -0.1245
    114  CA       101.3100   37.3010    2.6610 C.3   245  ARG245      0.1563
    115  C        102.4010   36.2670    2.3840 C.2   245  ARG245      0.2260
    116  O        102.1160   35.1010    2.1050 O.2   245  ARG245     -0.2867
    117  CB        99.9740   36.6130    2.9560 C.3   245  ARG245      0.0307
    118  CG        98.7920   37.5660    3.1070 C.3   245  ARG245      0.0489
    119  CD        99.1090   38.7360    4.0280 C.3   245  ARG245      0.2205
    120  NE        99.4330   38.2960    5.3820 N.pl3 245  ARG245     -0.0865
    121  CZ       100.3980   38.8250    6.1310 C.cat 245  ARG245      0.5346
    122  NH1      101.1430   39.8140    5.6590 N.pl3 245  ARG245      0.1354
    123  NH2      100.6060   38.3690    7.3580 N.pl3 245  ARG245      0.1354
    124  N        110.2050   52.6830   13.7650 N.3   339  PHE339     -0.1241
    125  CA       109.5180   53.2320   14.9240 C.3   339  PHE339      0.1605
    126  C        110.4340   53.8670   15.9490 C.2   339  PHE339      0.2264
    127  O        111.6560   53.7150   15.9010 O.2   339  PHE339     -0.2867
    128  CB       108.6970   52.1390   15.6110 C.3   339  PHE339      0.0534
    129  CG       107.8700   51.3240   14.6650 C.ar  339  PHE339     -0.0203
    130  CD1      106.7190   51.8520   14.0910 C.ar  339  PHE339     -0.0042
    131  CD2      108.2660   50.0360   14.3150 C.ar  339  PHE339     -0.0042
    132  CE1      105.9770   51.1130   13.1790 C.ar  339  PHE339     -0.0003
    133  CE2      107.5310   49.2870   13.4030 C.ar  339  PHE339     -0.0003
    134  CZ       106.3870   49.8250   12.8340 C.ar  339  PHE339     -0.0000
    135  N        104.1610   55.3250   20.1620 N.3   365  ARG365     -0.1245
    136  CA       104.9260   54.7470   19.0660 C.3   365  ARG365      0.1563
    137  C        104.6280   55.5230   17.7900 C.2   365  ARG365      0.2260
    138  O        103.4670   55.6250   17.3760 O.2   365  ARG365     -0.2867
    139  CB       104.5640   53.2750   18.8550 C.3   365  ARG365      0.0307
    140  CG       105.4990   52.5500   17.8900 C.3   365  ARG365      0.0489
    141  CD       104.9410   51.2070   17.4480 C.3   365  ARG365      0.2205
    142  NE       104.0760   51.3110   16.2750 N.pl3 365  ARG365     -0.0865
    143  CZ       103.6070   50.2680   15.5980 C.cat 365  ARG365      0.5346
    144  NH1      103.9070   49.0330   15.9770 N.pl3 365  ARG365      0.1354
    145  NH2      102.8740   50.4600   14.5130 N.pl3 365  ARG365      0.1354
@<TRIPOS>BOND
     1   101   102    1
     2   113   114    1
     3   116   115    2
     4   107   109   ar
     5   107   106   ar
     6   103   102    1
     7   103   104    2
     8   115   114    1
     9   109   111   ar
    10   102   105    1
    11   114   117    1
    12    95    94    2
    13   117   118    1
    14   118   119    1
    15   105   106    1
    16   106   108   ar
    17    94    93    1
    18   111   112    1
    19   111   110   ar
    20   119   120    1
    21    93    92    1
    22    93    96    1
    23    41    40    1
    24   108   110   ar
    25   120   121    2
    26   122   121    1
    27    96    97    1
    28    40    42    1
    29    40    37    1
    30   121   123    1
    31    38    37    1
    32    38    39    2
    33    37    36    1
    34    97    98    1
    35    98    99    1
    36    36    34   am
    37    83    82    2
    38    82    81    1
    39    35    34    2
    40    99   100    1
    41    81    80    1
    42    81    84    1
    43    30    29    1
    44    34    33    1
    45    86    88   ar
    46    86    85   ar
    47    88    90   ar
    48    84    85    1
    49    28    27    2
    50    31    29    1
    51    85    87   ar
    52    29    26    1
    53    43    44    1
    54    33    32    1
    55    27    32   am
    56    27    26    1
    57    90    91    1
    58    90    89   ar
    59    26    25    1
    60    45    44    1
    61    45    46    2
    62    87    89   ar
    63    24    22    1
    64    47    44    1
    65    47    48    1
    66    47    49    1
    67    23    22    1
    68    22    21    1
    69    20    19    2
    70   134   132   ar
    71   134   133   ar
    72    21    18    1
    73   132   130   ar
    74    18    19    1
    75    18    17    1
    76   133   131   ar
    77    63    61   ar
    78    63    62   ar
    79    61    59   ar
    80   124   125    1
    81   130   129   ar
    82    12    11    2
    83    15    13    1
    84   131   129   ar
    85    17    11   am
    86   145   143    1
    87    62    60   ar
    88   129   128    1
    89    11    10    1
    90    59    58   ar
    91    59    57   ar
    92    79    77   am
    93   125   128    1
    94   125   126    1
    95    58    56   ar
    96    13    10    1
    97    13    14    1
    98    71    69   am
    99   143   144    1
   100   143   142    2
   101    60    57   ar
   102     8     6   ar
   103    57    55   ar
   104    10     9    1
   105   127   126    2
   106    77    76    1
   107    77    78    2
   108     5     6    1
   109     5     2    1
   110    76    73    1
   111   142   141    1
   112    16    14    1
   113     6     7   ar
   114    69    70    2
   115    69    68    1
   116    56    55   ar
   117    68    65    1
   118    55    54    1
   119     4     3    2
   120    73    72    1
   121    73    74    1
   122   138   137    2
   123   141   140    1
   124     1     2    1
   125     2     3    1
   126   137   136    1
   127   140   139    1
   128    54    51    1
   129    65    66    1
   130    65    64    1
   131    67    66    2
   132    74    75    2
   133   139   136    1
   134   136   135    1
   135    51    52    1
   136    51    50    1
   137    52    53    2
