@<TRIPOS>MOLECULE
tmp/2ay5B01.pdb
 134 126 0 0 0
SMALL
GASTEIGER

@<TRIPOS>ATOM
      1  N         92.3100   44.7420   17.6790 N.3    11  ASP11      -0.1239
      2  CA        93.7080   45.1370   17.5560 C.3    11  ASP11       0.1674
      3  C         93.8140   46.6660   17.5250 C.2    11  ASP11       0.2266
      4  O         93.6280   47.2970   16.4800 O.2    11  ASP11      -0.2867
      5  CB        94.3150   44.5380   16.2750 C.3    11  ASP11       0.1410
      6  CG        95.8270   44.7200   16.1940 C.2    11  ASP11       0.3668
      7  OD1       96.2910   45.8170   15.8140 O.co2  11  ASP11      -0.2456
      8  OD2       96.5610   43.7580   16.4950 O.co2  11  ASP11      -0.2456
      9  N         96.1790   48.9490   17.2810 N.3    13  ILE13      -0.1231
     10  CA        96.9400   49.5780   16.1980 C.3    13  ILE13       0.1692
     11  C         96.1180   49.6750   14.9080 C.2    13  ILE13       0.2591
     12  O         96.1160   50.7100   14.2330 O.2    13  ILE13      -0.2718
     13  CB        98.2680   48.8130   15.9160 C.3    13  ILE13       0.0266
     14  CG1       99.1390   48.7880   17.1770 C.3    13  ILE13       0.0019
     15  CG2       99.0380   49.4720   14.7650 C.3    13  ILE13       0.0020
     16  CD1      100.4700   48.0770   17.0000 C.3    13  ILE13       0.0001
     17  N         95.4140   48.5990   14.5750 N.am   14  LEU14      -0.1980
     18  CA        94.5850   48.5730   13.3750 C.3    14  LEU14       0.1596
     19  C         93.2410   49.2420   13.6530 C.2    14  LEU14       0.2287
     20  O         92.5350   49.6430   12.7280 O.2    14  LEU14      -0.2864
     21  CB        94.3720   47.1330   12.9010 C.3    14  LEU14       0.0297
     22  CG        95.6170   46.3470   12.4760 C.3    14  LEU14       0.0022
     23  CD1       95.2510   44.8920   12.2250 C.3    14  LEU14       0.0001
     24  CD2       96.2420   46.9700   11.2360 C.3    14  LEU14       0.0001
     25  N         99.9570   52.7010   11.8680 N.3    27  VAL27      -0.1231
     26  CA       100.3010   51.4420   11.2020 C.3    27  VAL27       0.1692
     27  C        101.7120   51.4050   10.6350 C.2    27  VAL27       0.2593
     28  O        102.1570   52.3370    9.9680 O.2    27  VAL27      -0.2718
     29  CB        99.2540   51.0430   10.1170 C.3    27  VAL27       0.0266
     30  CG1       99.3760   51.9230    8.8820 C.3    27  VAL27       0.0020
     31  CG2       99.3940   49.5700    9.7610 C.3    27  VAL27       0.0020
     32  N        102.4000   50.3060   10.9130 N.am   28  GLY28      -0.1942
     33  CA       103.7750   50.1330   10.4910 C.3    28  GLY28       0.2014
     34  C        104.0650   49.8820    9.0350 C.2    28  GLY28       0.2638
     35  O        104.9060   49.0460    8.6960 O.2    28  GLY28      -0.2714
     36  N        103.3880   50.6160    8.1690 N.am   29  VAL29      -0.1977
     37  CA       103.5950   50.4760    6.7440 C.3    29  VAL29       0.1596
     38  C        104.5220   51.6140    6.3430 C.2    29  VAL29       0.2287
     39  O        104.6600   52.5870    7.0830 O.2    29  VAL29      -0.2864
     40  CB       102.2580   50.6070    5.9890 C.3    29  VAL29       0.0276
     41  CG1      102.4710   50.3890    4.5180 C.3    29  VAL29       0.0022
     42  CG2      101.2570   49.6080    6.5210 C.3    29  VAL29       0.0022
     43  N        103.7040   36.7200   10.4170 N.3    95  THR95      -0.1218
     44  CA       102.8310   36.3800   11.5420 C.3    95  THR95       0.1862
     45  C        102.5600   34.8760   11.5310 C.2    95  THR95       0.2287
     46  O        102.6430   34.2160   12.5670 O.2    95  THR95      -0.2866
     47  CB       101.5010   37.1740   11.4860 C.3    95  THR95       0.1770
     48  OG1      101.7880   38.5800   11.5540 O.3    95  THR95      -0.2211
     49  CG2      100.5750   36.7810   12.6520 C.3    95  THR95       0.0375
     50  N        105.8810   43.7420   20.2060 N.3   121  TRP121     -0.1241
     51  CA       104.7750   43.7910   19.2610 C.3   121  TRP121      0.1605
     52  C        103.5900   43.0930   19.9310 C.2   121  TRP121      0.2264
     53  O        103.6630   41.9000   20.2480 O.2   121  TRP121     -0.2867
     54  CB       105.1840   43.0430   17.9950 C.3   121  TRP121      0.0550
     55  CG       104.2960   43.2250   16.8220 C.ar  121  TRP121      0.0003
     56  CD1      103.8400   44.4040   16.3120 C.ar  121  TRP121      0.0946
     57  CD2      103.8030   42.1970   15.9560 C.ar  121  TRP121      0.0152
     58  NE1      103.1010   44.1750   15.1800 N.ar  121  TRP121     -0.2442
     59  CE2      103.0610   42.8210   14.9370 C.ar  121  TRP121      0.0810
     60  CE3      103.9180   40.8000   15.9420 C.ar  121  TRP121      0.0012
     61  CZ2      102.4400   42.1150   13.9110 C.ar  121  TRP121      0.0191
     62  CZ3      103.3010   40.0920   14.9240 C.ar  121  TRP121      0.0001
     63  CH2      102.5690   40.7510   13.9220 C.ar  121  TRP121      0.0015
     64  N        100.8780   41.7860   18.9580 N.3   123  ASN123     -0.1240
     65  CA       100.4550   40.5240   18.3660 C.3   123  ASN123      0.1653
     66  C        101.1530   39.3100   18.9720 C.2   123  ASN123      0.2266
     67  O        100.5810   38.2230   19.0090 O.2   123  ASN123     -0.2867
     68  CB       100.6640   40.5420   16.8560 C.3   123  ASN123      0.1155
     69  CG        99.3640   40.6080   16.0930 C.2   123  ASN123      0.2627
     70  OD1       98.9340   39.6220   15.4880 O.2   123  ASN123     -0.2716
     71  ND2       98.7170   41.7670   16.1240 N.am  123  ASN123     -0.0877
     72  N        110.1380   46.7920   17.3650 N.3   174  ASN174     -0.1240
     73  CA       108.7730   47.2950   17.3410 C.3   174  ASN174      0.1653
     74  C        108.2750   47.0390   18.7620 C.2   174  ASN174      0.2266
     75  O        108.2760   45.8920   19.2140 O.2   174  ASN174     -0.2867
     76  CB       107.9730   46.4640   16.3240 C.3   174  ASN174      0.1155
     77  CG       106.5950   47.0210   16.0520 C.2   174  ASN174      0.2627
     78  OD1      106.1320   47.9290   16.7400 O.2   174  ASN174     -0.2716
     79  ND2      105.9280   46.4780   15.0390 N.am  174  ASN174     -0.0877
     80  N        112.0000   43.5130    9.6910 N.3   205  TYR205     -0.1241
     81  CA       112.4650   44.7360    9.0360 C.3   205  TYR205      0.1605
     82  C        113.9110   44.7170    8.5570 C.2   205  TYR205      0.2264
     83  O        114.6290   45.7070    8.7050 O.2   205  TYR205     -0.2867
     84  CB       112.2500   45.9430    9.9500 C.3   205  TYR205      0.0534
     85  CG       110.7970   46.2820   10.2080 C.ar  205  TYR205     -0.0201
     86  CD1      110.0890   47.0990    9.3310 C.ar  205  TYR205     -0.0009
     87  CD2      110.1430   45.8210   11.3550 C.ar  205  TYR205     -0.0009
     88  CE1      108.7690   47.4500    9.5890 C.ar  205  TYR205      0.0417
     89  CE2      108.8220   46.1690   11.6230 C.ar  205  TYR205      0.0417
     90  CZ       108.1420   46.9850   10.7350 C.ar  205  TYR205      0.1957
     91  OH       106.8380   47.3430   10.9840 O.3   205  TYR205     -0.2866
     92  N        107.3430   44.0430    4.6030 N.3   237  LYS237     -0.1245
     93  CA       107.9320   45.3770    4.6010 C.3   237  LYS237      0.1561
     94  C        109.0930   45.6380    3.6440 C.2   237  LYS237      0.2260
     95  O        109.0100   46.5510    2.8240 O.2   237  LYS237     -0.2867
     96  CB       108.3010   45.8070    6.0250 C.3   237  LYS237      0.0271
     97  CG       107.0950   46.0590    6.9290 C.3   237  LYS237      0.0035
     98  CD       106.8670   44.9190    7.9030 C.3   237  LYS237      0.0206
     99  CE       105.6870   45.2160    8.8260 C.3   237  LYS237      0.1093
    100  NZ       105.8390   44.5490   10.1210 N.3   237  LYS237     -0.1314
    101  N        102.9560   43.5240    1.4240 N.3   242  TYR242     -0.1241
    102  CA       102.1280   43.2730    2.6040 C.3   242  TYR242      0.1605
    103  C        100.9380   42.3560    2.3910 C.2   242  TYR242      0.2264
    104  O        100.8040   41.3440    3.0810 O.2   242  TYR242     -0.2867
    105  CB       101.6140   44.5990    3.1800 C.3   242  TYR242      0.0534
    106  CG       102.6690   45.6610    3.3680 C.ar  242  TYR242     -0.0201
    107  CD1      103.0040   46.5290    2.3320 C.ar  242  TYR242     -0.0009
    108  CD2      103.3090   45.8190    4.5890 C.ar  242  TYR242     -0.0009
    109  CE1      103.9470   47.5330    2.5120 C.ar  242  TYR242      0.0417
    110  CE2      104.2530   46.8170    4.7800 C.ar  242  TYR242      0.0417
    111  CZ       104.5670   47.6710    3.7430 C.ar  242  TYR242      0.1957
    112  OH       105.4790   48.6830    3.9480 O.3   242  TYR242     -0.2866
    113  N        100.9730   38.3000    1.7240 N.3   245  ARG245     -0.1245
    114  CA       101.1430   37.4310    2.8800 C.3   245  ARG245      0.1563
    115  C        102.2710   36.4320    2.6390 C.2   245  ARG245      0.2260
    116  O        102.0310   35.2710    2.3490 O.2   245  ARG245     -0.2867
    117  CB        99.8330   36.7040    3.2160 C.3   245  ARG245      0.0307
    118  CG        98.6090   37.5990    3.2690 C.3   245  ARG245      0.0489
    119  CD        98.8020   38.7900    4.1790 C.3   245  ARG245      0.2205
    120  NE        99.1550   38.4040    5.5410 N.pl3 245  ARG245     -0.0865
    121  CZ       100.1760   38.9230    6.2120 C.cat 245  ARG245      0.5346
    122  NH1      100.9450   39.8380    5.6390 N.pl3 245  ARG245      0.1354
    123  NH2      100.4370   38.5230    7.4460 N.pl3 245  ARG245      0.1354
    124  N        104.0290   55.4760   20.1140 N.3   365  ARG365     -0.1245
    125  CA       104.8180   54.8850   19.0360 C.3   365  ARG365      0.1563
    126  C        104.4760   55.6460   17.7640 C.2   365  ARG365      0.2260
    127  O        103.3130   55.6640   17.3370 O.2   365  ARG365     -0.2867
    128  CB       104.5080   53.3970   18.8320 C.3   365  ARG365      0.0307
    129  CG       105.4720   52.7290   17.8530 C.3   365  ARG365      0.0489
    130  CD       104.9470   51.4260   17.2830 C.3   365  ARG365      0.2205
    131  NE       103.9820   51.6490   16.2130 N.pl3 365  ARG365     -0.0865
    132  CZ       103.3830   50.6820   15.5240 C.cat 365  ARG365      0.5346
    133  NH1      103.6420   49.4070   15.7890 N.pl3 365  ARG365      0.1354
    134  NH2      102.5250   50.9910   14.5610 N.pl3 365  ARG365      0.1354
@<TRIPOS>BOND
     1   101   102    1
     2   113   114    1
     3   107   109   ar
     4   107   106   ar
     5   116   115    2
     6   103   102    1
     7   103   104    2
     8   109   111   ar
     9   102   105    1
    10   115   114    1
    11    95    94    2
    12   114   117    1
    13   105   106    1
    14   117   118    1
    15   118   119    1
    16   106   108   ar
    17    94    93    1
    18   111   112    1
    19   111   110   ar
    20   119   120    1
    21    41    40    1
    22   108   110   ar
    23    93    92    1
    24    93    96    1
    25   120   121    2
    26   122   121    1
    27    40    42    1
    28    40    37    1
    29    96    97    1
    30   121   123    1
    31    38    37    1
    32    38    39    2
    33    37    36    1
    34    97    98    1
    35    98    99    1
    36    36    34   am
    37    82    83    2
    38    82    81    1
    39    35    34    2
    40    99   100    1
    41    30    29    1
    42    34    33    1
    43    81    80    1
    44    81    84    1
    45    86    88   ar
    46    86    85   ar
    47    88    90   ar
    48    31    29    1
    49    84    85    1
    50    28    27    2
    51    29    26    1
    52    85    87   ar
    53    43    44    1
    54    33    32    1
    55    27    32   am
    56    27    26    1
    57    90    91    1
    58    90    89   ar
    59    26    25    1
    60    24    22    1
    61    87    89   ar
    62    47    44    1
    63    47    48    1
    64    47    49    1
    65    45    44    1
    66    45    46    2
    67    23    22    1
    68    22    21    1
    69    20    19    2
    70    21    18    1
    71    18    19    1
    72    18    17    1
    73    61    63   ar
    74    61    59   ar
    75    63    62   ar
    76    12    11    2
    77   134   132    1
    78    17    11   am
    79    15    13    1
    80    11    10    1
    81    62    60   ar
    82    59    58   ar
    83    59    57   ar
    84    79    77   am
    85    58    56   ar
    86    70    69    2
    87   132   133    1
    88   132   131    2
    89     7     6   ar
    90    13    10    1
    91    13    14    1
    92    60    57   ar
    93    57    55   ar
    94    77    76    1
    95    77    78    2
    96    69    71   am
    97    69    68    1
    98     6     5    1
    99     6     8   ar
   100    10     9    1
   101   131   130    1
   102     5     2    1
   103    56    55   ar
   104    76    73    1
   105     4     3    2
   106    55    54    1
   107    68    65    1
   108    16    14    1
   109   130   129    1
   110   127   126    2
   111    73    72    1
   112    73    74    1
   113     3     2    1
   114     2     1    1
   115   126   125    1
   116   129   128    1
   117    54    51    1
   118    65    64    1
   119    65    66    1
   120    74    75    2
   121   128   125    1
   122    66    67    2
   123   125   124    1
   124    51    52    1
   125    51    50    1
   126    52    53    2
