@<TRIPOS>MOLECULE
tmp/2ay7B01.pdb
 145 137 0 0 0
SMALL
GASTEIGER

@<TRIPOS>ATOM
      1  N         92.3280   44.6710   17.1460 N.3    11  ASP11      -0.1239
      2  CA        93.7310   45.0320   17.0680 C.3    11  ASP11       0.1674
      3  C         93.7760   46.5560   17.1930 C.2    11  ASP11       0.2266
      4  O         93.3570   47.2800   16.2850 O.2    11  ASP11      -0.2867
      5  CB        94.3300   44.5960   15.7280 C.3    11  ASP11       0.1410
      6  CG        95.8540   44.5960   15.7380 C.2    11  ASP11       0.3668
      7  OD1       96.4680   45.6440   16.0510 O.co2  11  ASP11      -0.2456
      8  OD2       96.4430   43.5480   15.4110 O.co2  11  ASP11      -0.2456
      9  N         96.3020   48.6200   17.0430 N.3    13  ILE13      -0.1231
     10  CA        97.1550   49.2660   16.0460 C.3    13  ILE13       0.1692
     11  C         96.3770   49.3950   14.7370 C.2    13  ILE13       0.2591
     12  O         96.3610   50.4580   14.1170 O.2    13  ILE13      -0.2718
     13  CB        98.4620   48.4700   15.7820 C.3    13  ILE13       0.0266
     14  CG1       99.2640   48.3170   17.0770 C.3    13  ILE13       0.0019
     15  CG2       99.3070   49.1740   14.7170 C.3    13  ILE13       0.0020
     16  CD1      100.5770   47.5700   16.9100 C.3    13  ILE13       0.0001
     17  N         95.7120   48.3140   14.3380 N.am   14  LEU14      -0.1980
     18  CA        94.9330   48.3090   13.1040 C.3    14  LEU14       0.1596
     19  C         93.6860   49.1710   13.2460 C.2    14  LEU14       0.2287
     20  O         93.1530   49.6700   12.2550 O.2    14  LEU14      -0.2864
     21  CB        94.5450   46.8810   12.7110 C.3    14  LEU14       0.0297
     22  CG        95.6890   45.9220   12.3690 C.3    14  LEU14       0.0022
     23  CD1       95.1330   44.5440   12.0470 C.3    14  LEU14       0.0001
     24  CD2       96.4980   46.4660   11.2000 C.3    14  LEU14       0.0001
     25  N        100.0510   52.4570   11.8270 N.3    27  VAL27      -0.1231
     26  CA       100.4410   51.1920   11.1940 C.3    27  VAL27       0.1692
     27  C        101.8110   51.2160   10.5040 C.2    27  VAL27       0.2593
     28  O        102.1260   52.1150    9.7140 O.2    27  VAL27      -0.2718
     29  CB        99.3230   50.6750   10.2450 C.3    27  VAL27       0.0266
     30  CG1       99.7950   49.4740    9.4530 C.3    27  VAL27       0.0020
     31  CG2       98.0970   50.2900   11.0580 C.3    27  VAL27       0.0020
     32  N        102.6010   50.1940   10.8060 N.am   28  GLY28      -0.1942
     33  CA       103.9480   50.0760   10.2920 C.3    28  GLY28       0.2014
     34  C        104.1640   49.7620    8.8330 C.2    28  GLY28       0.2638
     35  O        104.7020   48.7100    8.4910 O.2    28  GLY28      -0.2714
     36  N        103.7410   50.6650    7.9660 N.am   29  VAL29      -0.1977
     37  CA       103.9460   50.4850    6.5390 C.3    29  VAL29       0.1596
     38  C        104.7670   51.6810    6.0890 C.2    29  VAL29       0.2287
     39  O        104.6590   52.7650    6.6660 O.2    29  VAL29      -0.2864
     40  CB       102.6130   50.4310    5.7500 C.3    29  VAL29       0.0276
     41  CG1      101.7820   49.2520    6.2090 C.3    29  VAL29       0.0022
     42  CG2      101.8370   51.7210    5.9150 C.3    29  VAL29       0.0022
     43  N        103.7610   36.7980   10.3460 N.3    95  THR95      -0.1218
     44  CA       102.8840   36.4110   11.4410 C.3    95  THR95       0.1862
     45  C        102.6450   34.9040   11.4180 C.2    95  THR95       0.2287
     46  O        102.7170   34.2370   12.4580 O.2    95  THR95      -0.2866
     47  CB       101.5330   37.1770   11.3750 C.3    95  THR95       0.1770
     48  OG1      101.7640   38.5760   11.5930 O.3    95  THR95      -0.2211
     49  CG2      100.5480   36.6530   12.4320 C.3    95  THR95       0.0375
     50  N        106.0230   43.5920   20.2720 N.3   121  TRP121     -0.1241
     51  CA       104.8970   43.6600   19.3430 C.3   121  TRP121      0.1605
     52  C        103.7360   42.9690   20.0550 C.2   121  TRP121      0.2264
     53  O        103.7940   41.7640   20.3080 O.2   121  TRP121     -0.2867
     54  CB       105.2580   42.9030   18.0630 C.3   121  TRP121      0.0550
     55  CG       104.3810   43.1660   16.8820 C.ar  121  TRP121      0.0003
     56  CD1      103.9300   44.3760   16.4490 C.ar  121  TRP121      0.0946
     57  CD2      103.9080   42.1990   15.9310 C.ar  121  TRP121      0.0152
     58  NE1      103.2180   44.2270   15.2840 N.ar  121  TRP121     -0.2442
     59  CE2      103.1900   42.9020   14.9430 C.ar  121  TRP121      0.0810
     60  CE3      104.0290   40.8050   15.8200 C.ar  121  TRP121      0.0012
     61  CZ2      102.5920   42.2630   13.8530 C.ar  121  TRP121      0.0191
     62  CZ3      103.4330   40.1680   14.7350 C.ar  121  TRP121      0.0001
     63  CH2      102.7230   40.8990   13.7670 C.ar  121  TRP121      0.0015
     64  N        101.0130   41.7560   19.1600 N.3   123  ASN123     -0.1240
     65  CA       100.5350   40.5590   18.4880 C.3   123  ASN123      0.1653
     66  C        101.2660   39.3120   18.9680 C.2   123  ASN123      0.2266
     67  O        100.7330   38.2080   18.8890 O.2   123  ASN123     -0.2867
     68  CB       100.6470   40.7200   16.9810 C.3   123  ASN123      0.1155
     69  CG        99.7560   41.8290   16.4600 C.2   123  ASN123      0.2627
     70  OD1      100.1860   42.9780   16.3150 O.2   123  ASN123     -0.2716
     71  ND2       98.4920   41.5080   16.2350 N.am  123  ASN123     -0.0877
     72  N        110.2760   46.6190   17.2770 N.3   174  ASN174     -0.1240
     73  CA       108.9200   47.1660   17.2660 C.3   174  ASN174      0.1653
     74  C        108.4190   46.9100   18.6930 C.2   174  ASN174      0.2266
     75  O        108.4440   45.7670   19.1530 O.2   174  ASN174     -0.2867
     76  CB       108.0850   46.3640   16.2510 C.3   174  ASN174      0.1155
     77  CG       106.6680   46.8840   16.0950 C.2   174  ASN174      0.2627
     78  OD1      106.1950   47.6910   16.8970 O.2   174  ASN174     -0.2716
     79  ND2      105.9800   46.4180   15.0560 N.am  174  ASN174     -0.0877
     80  N        112.0780   43.4350    9.6600 N.3   205  TYR205     -0.1241
     81  CA       112.5380   44.6620    9.0280 C.3   205  TYR205      0.1605
     82  C        113.9610   44.6460    8.4810 C.2   205  TYR205      0.2264
     83  O        114.6060   45.6950    8.4210 O.2   205  TYR205     -0.2867
     84  CB       112.3880   45.8290   10.0040 C.3   205  TYR205      0.0534
     85  CG       110.9620   46.2540   10.2450 C.ar  205  TYR205     -0.0201
     86  CD1      110.2740   46.9930    9.2930 C.ar  205  TYR205     -0.0009
     87  CD2      110.3020   45.9200   11.4290 C.ar  205  TYR205     -0.0009
     88  CE1      108.9670   47.3950    9.5080 C.ar  205  TYR205      0.0417
     89  CE2      108.9910   46.3180   11.6570 C.ar  205  TYR205      0.0417
     90  CZ       108.3280   47.0540   10.6890 C.ar  205  TYR205      0.1957
     91  OH       107.0270   47.4480   10.8910 O.3   205  TYR205     -0.2866
     92  N        107.4570   44.0110    4.6000 N.3   237  LYS237     -0.1245
     93  CA       108.0140   45.3540    4.5650 C.3   237  LYS237      0.1561
     94  C        109.2020   45.5690    3.6300 C.2   237  LYS237      0.2260
     95  O        109.1460   46.4550    2.7750 O.2   237  LYS237     -0.2867
     96  CB       108.3290   45.8550    5.9790 C.3   237  LYS237      0.0271
     97  CG       107.1000   46.0360    6.8800 C.3   237  LYS237      0.0035
     98  CD       106.9680   44.8970    7.8970 C.3   237  LYS237      0.0206
     99  CE       105.7690   45.1090    8.8260 C.3   237  LYS237      0.1093
    100  NZ       105.9430   44.4480   10.1220 N.3   237  LYS237     -0.1314
    101  N        103.0310   43.5530    1.4190 N.3   242  TYR242     -0.1241
    102  CA       102.2100   43.3610    2.6140 C.3   242  TYR242      0.1605
    103  C        100.9830   42.4600    2.4420 C.2   242  TYR242      0.2264
    104  O        100.7820   41.5280    3.2230 O.2   242  TYR242     -0.2867
    105  CB       101.7330   44.7170    3.1400 C.3   242  TYR242      0.0534
    106  CG       102.8140   45.7550    3.3100 C.ar  242  TYR242     -0.0201
    107  CD1      103.1650   46.6050    2.2580 C.ar  242  TYR242     -0.0009
    108  CD2      103.4590   45.9200    4.5290 C.ar  242  TYR242     -0.0009
    109  CE1      104.1300   47.5890    2.4240 C.ar  242  TYR242      0.0417
    110  CE2      104.4190   46.8980    4.7040 C.ar  242  TYR242      0.0417
    111  CZ       104.7460   47.7310    3.6540 C.ar  242  TYR242      0.1957
    112  OH       105.6660   48.7240    3.8580 O.3   242  TYR242     -0.2866
    113  N        101.1060   38.2780    1.6490 N.3   245  ARG245     -0.1245
    114  CA       101.2410   37.3510    2.7580 C.3   245  ARG245      0.1563
    115  C        102.3460   36.3310    2.5080 C.2   245  ARG245      0.2260
    116  O        102.0860   35.1440    2.2750 O.2   245  ARG245     -0.2867
    117  CB        99.9040   36.6520    3.0530 C.3   245  ARG245      0.0307
    118  CG        98.7180   37.6010    3.2260 C.3   245  ARG245      0.0489
    119  CD        99.0420   38.7800    4.1420 C.3   245  ARG245      0.2205
    120  NE        99.2830   38.3640    5.5210 N.pl3 245  ARG245     -0.0865
    121  CZ       100.2560   38.8440    6.2890 C.cat 245  ARG245      0.5346
    122  NH1      101.0910   39.7640    5.8170 N.pl3 245  ARG245      0.1354
    123  NH2      100.3980   38.4000    7.5280 N.pl3 245  ARG245      0.1354
    124  N        109.9560   52.6550   13.6790 N.3   339  PHE339     -0.1241
    125  CA       109.2900   53.2340   14.8290 C.3   339  PHE339      0.1605
    126  C        110.2430   53.8720   15.8180 C.2   339  PHE339      0.2264
    127  O        111.4650   53.7380   15.7130 O.2   339  PHE339     -0.2867
    128  CB       108.4650   52.1560   15.5250 C.3   339  PHE339      0.0534
    129  CG       107.6370   51.3390   14.5810 C.ar  339  PHE339     -0.0203
    130  CD1      106.5570   51.9060   13.9160 C.ar  339  PHE339     -0.0042
    131  CD2      107.9650   50.0180   14.3200 C.ar  339  PHE339     -0.0042
    132  CE1      105.8240   51.1730   13.0040 C.ar  339  PHE339     -0.0003
    133  CE2      107.2350   49.2730   13.4040 C.ar  339  PHE339     -0.0003
    134  CZ       106.1630   49.8520   12.7470 C.ar  339  PHE339     -0.0000
    135  N        104.0000   55.3740   20.0770 N.3   365  ARG365     -0.1245
    136  CA       104.8530   54.8030   19.0430 C.3   365  ARG365      0.1563
    137  C        104.5350   55.5280   17.7420 C.2   365  ARG365      0.2260
    138  O        103.3790   55.5420   17.3080 O.2   365  ARG365     -0.2867
    139  CB       104.5940   53.3050   18.8540 C.3   365  ARG365      0.0307
    140  CG       105.5910   52.6450   17.8990 C.3   365  ARG365      0.0489
    141  CD       105.0870   51.3270   17.3540 C.3   365  ARG365      0.2205
    142  NE       104.1350   51.5110   16.2640 N.pl3 365  ARG365     -0.0865
    143  CZ       103.5010   50.5210   15.6400 C.cat 365  ARG365      0.5346
    144  NH1      103.7020   49.2580   16.0000 N.pl3 365  ARG365      0.1354
    145  NH2      102.6890   50.7950   14.6280 N.pl3 365  ARG365      0.1354
@<TRIPOS>BOND
     1   101   102    1
     2   113   114    1
     3   107   109   ar
     4   107   106   ar
     5   116   115    2
     6   109   111   ar
     7   103   102    1
     8   103   104    2
     9   115   114    1
    10   102   105    1
    11   114   117    1
    12    95    94    2
    13   117   118    1
    14   105   106    1
    15   118   119    1
    16   106   108   ar
    17    94    93    1
    18   111   112    1
    19   111   110   ar
    20   119   120    1
    21   108   110   ar
    22    93    92    1
    23    93    96    1
    24   120   121    2
    25    40    42    1
    26    40    41    1
    27    40    37    1
    28   122   121    1
    29    96    97    1
    30    38    37    1
    31    38    39    2
    32   121   123    1
    33    37    36    1
    34    97    98    1
    35    98    99    1
    36    36    34   am
    37    83    82    2
    38    82    81    1
    39    35    34    2
    40    99   100    1
    41    34    33    1
    42    81    80    1
    43    81    84    1
    44    86    88   ar
    45    86    85   ar
    46    30    29    1
    47    88    90   ar
    48    28    27    2
    49    84    85    1
    50    29    31    1
    51    29    26    1
    52    85    87   ar
    53    33    32    1
    54    43    44    1
    55    27    32   am
    56    27    26    1
    57    90    91    1
    58    90    89   ar
    59    26    25    1
    60    24    22    1
    61    47    44    1
    62    47    48    1
    63    47    49    1
    64    45    44    1
    65    45    46    2
    66    87    89   ar
    67    23    22    1
    68    20    19    2
    69    22    21    1
    70    21    18    1
    71   134   132   ar
    72   134   133   ar
    73   132   130   ar
    74    18    19    1
    75    18    17    1
    76   133   131   ar
    77   124   125    1
    78    63    61   ar
    79    63    62   ar
    80    61    59   ar
    81   130   129   ar
    82    12    11    2
    83   131   129   ar
    84    17    11   am
    85   129   128    1
    86   145   143    1
    87    15    13    1
    88    62    60   ar
    89    11    10    1
    90   125   128    1
    91   125   126    1
    92    59    58   ar
    93    59    57   ar
    94    79    77   am
    95    58    56   ar
    96     8     6   ar
    97   143   144    1
    98   143   142    2
    99   127   126    2
   100     5     6    1
   101     5     2    1
   102     6     7   ar
   103    13    10    1
   104    13    14    1
   105    60    57   ar
   106    57    55   ar
   107    10     9    1
   108    77    76    1
   109    77    78    2
   110    71    69   am
   111    76    73    1
   112   142   141    1
   113     4     3    2
   114    70    69    2
   115    56    55   ar
   116    69    68    1
   117    55    54    1
   118    16    14    1
   119    68    65    1
   120     2     1    1
   121     2     3    1
   122    73    72    1
   123    73    74    1
   124   138   137    2
   125   141   140    1
   126   137   136    1
   127   140   139    1
   128    54    51    1
   129    65    66    1
   130    65    64    1
   131    74    75    2
   132   139   136    1
   133    67    66    2
   134   136   135    1
   135    51    52    1
   136    51    50    1
   137    52    53    2
