@<TRIPOS>MOLECULE
tmp/2ay8B02.pdb
 122 114 0 0 0
SMALL
GASTEIGER

@<TRIPOS>ATOM
      1  N         91.9520   44.3630   17.4610 N.3    11  ASP11      -0.1239
      2  CA        93.3770   44.6150   17.2840 C.3    11  ASP11       0.1674
      3  C         93.6060   46.1220   17.3900 C.2    11  ASP11       0.2266
      4  O         93.4220   46.8520   16.4130 O.2    11  ASP11      -0.2867
      5  CB        93.8300   44.1180   15.9040 C.3    11  ASP11       0.1410
      6  CG        95.3400   44.1900   15.7100 C.2    11  ASP11       0.3668
      7  OD1       95.9140   45.3020   15.7630 O.co2  11  ASP11      -0.2456
      8  OD2       95.9530   43.1320   15.4690 O.co2  11  ASP11      -0.2456
      9  N         96.1140   48.2530   17.2330 N.3    13  ILE13      -0.1231
     10  CA        96.8690   48.9080   16.1620 C.3    13  ILE13       0.1692
     11  C         96.0530   49.1000   14.8840 C.2    13  ILE13       0.2591
     12  O         96.1250   50.1530   14.2430 O.2    13  ILE13      -0.2718
     13  CB        98.1760   48.1410   15.8330 C.3    13  ILE13       0.0266
     14  CG1       99.0870   48.1080   17.0630 C.3    13  ILE13       0.0019
     15  CG2       98.9080   48.8050   14.6660 C.3    13  ILE13       0.0020
     16  CD1      100.4220   47.4330   16.8290 C.3    13  ILE13       0.0001
     17  N         95.2680   48.0910   14.5210 N.am   14  LEU14      -0.1980
     18  CA        94.4420   48.1710   13.3250 C.3    14  LEU14       0.1596
     19  C         93.2060   49.0190   13.5920 C.2    14  LEU14       0.2287
     20  O         92.7000   49.6850   12.6940 O.2    14  LEU14      -0.2864
     21  CB        94.0460   46.7730   12.8490 C.3    14  LEU14       0.0297
     22  CG        95.2140   45.8890   12.4040 C.3    14  LEU14       0.0022
     23  CD1       94.7120   44.5010   12.0390 C.3    14  LEU14       0.0001
     24  CD2       95.9400   46.5370   11.2310 C.3    14  LEU14       0.0001
     25  N         99.8100   52.5180   11.9540 N.3    27  VAL27      -0.1231
     26  CA       100.1930   51.2610   11.3130 C.3    27  VAL27       0.1692
     27  C        101.5750   51.2640   10.6530 C.2    27  VAL27       0.2593
     28  O        101.9220   52.1560    9.8690 O.2    27  VAL27      -0.2718
     29  CB        99.0910   50.7600   10.3350 C.3    27  VAL27       0.0266
     30  CG1       99.0200   51.6500    9.0920 C.3    27  VAL27       0.0020
     31  CG2       99.3260   49.2910    9.9740 C.3    27  VAL27       0.0020
     32  N        102.3530   50.2480   11.0070 N.am   28  GLY28      -0.1942
     33  CA       103.7070   50.1020   10.5170 C.3    28  GLY28       0.2014
     34  C        103.9040   49.6790    9.0840 C.2    28  GLY28       0.2638
     35  O        104.3590   48.5710    8.8030 O.2    28  GLY28      -0.2714
     36  N        103.6070   50.5930    8.1770 N.am   29  VAL29      -0.1977
     37  CA       103.7600   50.3610    6.7510 C.3    29  VAL29       0.1596
     38  C        104.5880   51.5470    6.2500 C.2    29  VAL29       0.2287
     39  O        104.5550   52.6250    6.8500 O.2    29  VAL29      -0.2864
     40  CB       102.3750   50.3420    6.0530 C.3    29  VAL29       0.0276
     41  CG1      102.5370   50.2690    4.5610 C.3    29  VAL29       0.0022
     42  CG2      101.5460   49.1650    6.5410 C.3    29  VAL29       0.0022
     43  N        103.5200   36.6270   10.4370 N.3    95  THR95      -0.1218
     44  CA       102.6520   36.2410   11.5460 C.3    95  THR95       0.1862
     45  C        102.4140   34.7310   11.4520 C.2    95  THR95       0.2287
     46  O        102.5090   34.0100   12.4510 O.2    95  THR95      -0.2866
     47  CB       101.3120   37.0100   11.5090 C.3    95  THR95       0.1770
     48  OG1      101.5690   38.4210   11.6120 O.3    95  THR95      -0.2211
     49  CG2      100.3870   36.5620   12.6590 C.3    95  THR95       0.0375
     50  N        105.7190   43.5600   20.3760 N.3   121  TRP121     -0.1241
     51  CA       104.6120   43.6020   19.4350 C.3   121  TRP121      0.1605
     52  C        103.4290   42.9360   20.1350 C.2   121  TRP121      0.2264
     53  O        103.5150   41.7730   20.5390 O.2   121  TRP121     -0.2867
     54  CB       104.9910   42.8140   18.1830 C.3   121  TRP121      0.0550
     55  CG       104.1520   43.1010   16.9880 C.ar  121  TRP121      0.0003
     56  CD1      103.7160   44.3250   16.5600 C.ar  121  TRP121      0.0946
     57  CD2      103.6830   42.1490   16.0230 C.ar  121  TRP121      0.0152
     58  NE1      103.0130   44.1910   15.3870 N.ar  121  TRP121     -0.2442
     59  CE2      102.9780   42.8690   15.0350 C.ar  121  TRP121      0.0810
     60  CE3      103.7920   40.7580   15.9020 C.ar  121  TRP121      0.0012
     61  CZ2      102.3910   42.2440   13.9290 C.ar  121  TRP121      0.0191
     62  CZ3      103.2070   40.1380   14.8080 C.ar  121  TRP121      0.0001
     63  CH2      102.5130   40.8800   13.8360 C.ar  121  TRP121      0.0015
     64  N        100.7440   41.6750   19.0620 N.3   123  ASN123     -0.1240
     65  CA       100.2890   40.4540   18.4100 C.3   123  ASN123      0.1653
     66  C        101.0420   39.2230   18.8930 C.2   123  ASN123      0.2266
     67  O        100.6110   38.0990   18.6640 O.2   123  ASN123     -0.2867
     68  CB       100.3970   40.5770   16.8960 C.3   123  ASN123      0.1155
     69  CG        99.5040   41.6580   16.3420 C.2   123  ASN123      0.2627
     70  OD1       99.5130   42.7930   16.8250 O.2   123  ASN123     -0.2716
     71  ND2       98.7290   41.3220   15.3220 N.am  123  ASN123     -0.0877
     72  N        110.0500   46.5690   17.2490 N.3   174  ASN174     -0.1240
     73  CA       108.6900   47.0940   17.2200 C.3   174  ASN174      0.1653
     74  C        108.1780   46.8230   18.6330 C.2   174  ASN174      0.2266
     75  O        108.1770   45.6670   19.0740 O.2   174  ASN174     -0.2867
     76  CB       107.8690   46.3070   16.1900 C.3   174  ASN174      0.1155
     77  CG       106.5060   46.9040   15.9400 C.2   174  ASN174      0.2627
     78  OD1      106.0520   47.7660   16.6860 O.2   174  ASN174     -0.2716
     79  ND2      105.8440   46.4520   14.8840 N.am  174  ASN174     -0.0877
     80  N        111.8110   43.3970    9.6630 N.3   205  TYR205     -0.1241
     81  CA       112.2840   44.6250    9.0300 C.3   205  TYR205      0.1605
     82  C        113.7410   44.5910    8.5550 C.2   205  TYR205      0.2264
     83  O        114.4660   45.5860    8.6880 O.2   205  TYR205     -0.2867
     84  CB       112.0900   45.8010    9.9890 C.3   205  TYR205      0.0534
     85  CG       110.6570   46.2350   10.1890 C.ar  205  TYR205     -0.0201
     86  CD1      110.0540   47.1300    9.3080 C.ar  205  TYR205     -0.0009
     87  CD2      109.9190   45.7960   11.2950 C.ar  205  TYR205     -0.0009
     88  CE1      108.7550   47.5870    9.5200 C.ar  205  TYR205      0.0417
     89  CE2      108.6170   46.2460   11.5170 C.ar  205  TYR205      0.0417
     90  CZ       108.0420   47.1450   10.6260 C.ar  205  TYR205      0.1957
     91  OH       106.7640   47.6200   10.8430 O.3   205  TYR205     -0.2866
     92  N        107.1780   43.8840    4.6220 N.3   237  LYS237     -0.1245
     93  CA       107.7340   45.2230    4.6000 C.3   237  LYS237      0.1561
     94  C        108.9460   45.4420    3.6940 C.2   237  LYS237      0.2260
     95  O        108.9560   46.3930    2.9110 O.2   237  LYS237     -0.2867
     96  CB       108.0050   45.6900    6.0290 C.3   237  LYS237      0.0271
     97  CG       106.7260   45.8170    6.8660 C.3   237  LYS237      0.0035
     98  CD       106.7550   44.9560    8.1220 C.3   237  LYS237      0.0206
     99  CE       105.4420   45.0840    8.9160 C.3   237  LYS237      0.1093
    100  NZ       105.5350   44.4410   10.2300 N.3   237  LYS237     -0.1314
    101  N        100.8070   38.2180    1.7120 N.3   245  ARG245     -0.1245
    102  CA       100.9830   37.2910    2.8090 C.3   245  ARG245      0.1563
    103  C        102.0820   36.2830    2.5140 C.2   245  ARG245      0.2260
    104  O        101.8180   35.1400    2.1400 O.2   245  ARG245     -0.2867
    105  CB        99.6620   36.5760    3.1200 C.3   245  ARG245      0.0307
    106  CG        98.4570   37.5030    3.2300 C.3   245  ARG245      0.0489
    107  CD        98.7410   38.6780    4.1320 C.3   245  ARG245      0.2205
    108  NE        99.0880   38.2640    5.4880 N.pl3 245  ARG245     -0.0865
    109  CZ       100.0830   38.7830    6.2010 C.cat 245  ARG245      0.5346
    110  NH1      100.8410   39.7430    5.6960 N.pl3 245  ARG245      0.1354
    111  NH2      100.3200   38.3350    7.4210 N.pl3 245  ARG245      0.1354
    112  N        104.0930   55.2210   20.1520 N.3   365  ARG365     -0.1245
    113  CA       104.8020   54.6520   19.0180 C.3   365  ARG365      0.1563
    114  C        104.4150   55.4580   17.7990 C.2   365  ARG365      0.2260
    115  O        103.2270   55.6770   17.5430 O.2   365  ARG365     -0.2867
    116  CB       104.4510   53.1860   18.7680 C.3   365  ARG365      0.0307
    117  CG       105.3610   52.5530   17.7130 C.3   365  ARG365      0.0489
    118  CD       104.8270   51.2430   17.1740 C.3   365  ARG365      0.2205
    119  NE       103.8380   51.4310   16.1210 N.pl3 365  ARG365     -0.0865
    120  CZ       103.1980   50.4440   15.5060 C.cat 365  ARG365      0.5346
    121  NH1      103.4300   49.1810   15.8320 N.pl3 365  ARG365      0.1354
    122  NH2      102.3380   50.7230   14.5420 N.pl3 365  ARG365      0.1354
@<TRIPOS>BOND
     1   101   102    1
     2   104   103    2
     3   103   102    1
     4   102   105    1
     5    95    94    2
     6   105   106    1
     7   106   107    1
     8    94    93    1
     9   107   108    1
    10    41    40    1
    11    93    92    1
    12    93    96    1
    13   108   109    2
    14   110   109    1
    15    96    97    1
    16    40    42    1
    17    40    37    1
    18   109   111    1
    19    38    37    1
    20    38    39    2
    21    37    36    1
    22    97    98    1
    23    98    99    1
    24    36    34   am
    25    82    83    2
    26    82    81    1
    27    35    34    2
    28    99   100    1
    29    81    80    1
    30    81    84    1
    31    34    33    1
    32    30    29    1
    33    86    88   ar
    34    86    85   ar
    35    88    90   ar
    36    28    27    2
    37    31    29    1
    38    84    85    1
    39    85    87   ar
    40    29    26    1
    41    43    44    1
    42    33    32    1
    43    90    91    1
    44    90    89   ar
    45    27    32   am
    46    27    26    1
    47    24    22    1
    48    87    89   ar
    49    26    25    1
    50    45    44    1
    51    45    46    2
    52    47    44    1
    53    47    48    1
    54    47    49    1
    55    23    22    1
    56    22    21    1
    57    20    19    2
    58    21    18    1
    59    18    19    1
    60    18    17    1
    61    63    61   ar
    62    63    62   ar
    63    61    59   ar
    64    12    11    2
    65    17    11   am
    66   122   120    1
    67    15    13    1
    68    62    60   ar
    69    11    10    1
    70    79    77   am
    71    59    58   ar
    72    59    57   ar
    73    71    69   am
    74    58    56   ar
    75     8     6   ar
    76   120   121    1
    77   120   119    2
    78     6     7   ar
    79     6     5    1
    80    13    10    1
    81    13    14    1
    82    60    57   ar
    83     5     2    1
    84    77    76    1
    85    77    78    2
    86    57    55   ar
    87   119   118    1
    88    10     9    1
    89    76    73    1
    90    69    70    2
    91    69    68    1
    92     4     3    2
    93    56    55   ar
    94    16    14    1
    95    68    65    1
    96    55    54    1
    97   118   117    1
    98    73    72    1
    99    73    74    1
   100     2     3    1
   101     2     1    1
   102   115   114    2
   103   117   116    1
   104   114   113    1
   105    54    51    1
   106    65    66    1
   107    65    64    1
   108    74    75    2
   109    67    66    2
   110   116   113    1
   111   113   112    1
   112    51    52    1
   113    51    50    1
   114    52    53    2
