@<TRIPOS>MOLECULE
tmp/2ay9B02.pdb
 133 125 0 0 0
SMALL
GASTEIGER

@<TRIPOS>ATOM
      1  N         92.0930   44.4210   17.7960 N.3    11  ASP11      -0.1239
      2  CA        93.5230   44.6620   17.7270 C.3    11  ASP11       0.1674
      3  C         93.7090   46.1820   17.7180 C.2    11  ASP11       0.2266
      4  O         93.1070   46.8880   16.9010 O.2    11  ASP11      -0.2867
      5  CB        94.1250   44.0400   16.4610 C.3    11  ASP11       0.1410
      6  CG        95.6440   44.1110   16.4380 C.2    11  ASP11       0.3668
      7  OD1       96.2890   43.2260   17.0440 O.co2  11  ASP11      -0.2456
      8  OD2       96.1950   45.0450   15.8140 O.co2  11  ASP11      -0.2456
      9  N         96.1820   48.3800   16.7430 N.3    13  ILE13      -0.1231
     10  CA        96.6210   48.9830   15.4860 C.3    13  ILE13       0.1692
     11  C         95.5350   48.9790   14.4070 C.2    13  ILE13       0.2591
     12  O         95.3300   49.9800   13.7190 O.2    13  ILE13      -0.2718
     13  CB        97.9000   48.2860   14.9600 C.3    13  ILE13       0.0266
     14  CG1       98.9450   48.2120   16.0780 C.3    13  ILE13       0.0019
     15  CG2       98.4780   49.0540   13.7750 C.3    13  ILE13       0.0020
     16  CD1      100.1620   47.3840   15.7350 C.3    13  ILE13       0.0001
     17  N         94.8370   47.8600   14.2640 N.am   14  LEU14      -0.1980
     18  CA        93.7740   47.7700   13.2730 C.3    14  LEU14       0.1596
     19  C         92.6510   48.7280   13.6610 C.2    14  LEU14       0.2287
     20  O         92.0510   49.3730   12.8040 O.2    14  LEU14      -0.2864
     21  CB        93.2540   46.3320   13.1690 C.3    14  LEU14       0.0297
     22  CG        94.2730   45.3000   12.6680 C.3    14  LEU14       0.0022
     23  CD1       93.7170   43.8890   12.7890 C.3    14  LEU14       0.0001
     24  CD2       94.6610   45.6040   11.2290 C.3    14  LEU14       0.0001
     25  N         99.8000   52.2430   11.8040 N.3    27  VAL27      -0.1231
     26  CA       100.2040   50.9700   11.2110 C.3    27  VAL27       0.1692
     27  C        101.5950   50.9970   10.5730 C.2    27  VAL27       0.2593
     28  O        101.9780   51.9640    9.9020 O.2    27  VAL27      -0.2718
     29  CB        99.1310   50.4330   10.2150 C.3    27  VAL27       0.0266
     30  CG1       99.2320   51.1320    8.8630 C.3    27  VAL27       0.0020
     31  CG2       99.2400   48.9250   10.0760 C.3    27  VAL27       0.0020
     32  N        102.3340   49.9170   10.8010 N.am   28  GLY28      -0.1942
     33  CA       103.6870   49.7960   10.3070 C.3    28  GLY28       0.2014
     34  C        103.9060   49.4710    8.8500 C.2    28  GLY28       0.2638
     35  O        104.2940   48.3580    8.5060 O.2    28  GLY28      -0.2714
     36  N        103.6980   50.4550    7.9940 N.am   29  VAL29      -0.1977
     37  CA       103.9140   50.2720    6.5710 C.3    29  VAL29       0.1596
     38  C        104.7560   51.4530    6.1090 C.2    29  VAL29       0.2287
     39  O        104.7640   52.5060    6.7490 O.2    29  VAL29      -0.2864
     40  CB       102.5760   50.2360    5.7760 C.3    29  VAL29       0.0276
     41  CG1      101.7680   49.0100    6.1510 C.3    29  VAL29       0.0022
     42  CG2      101.7640   51.4890    6.0430 C.3    29  VAL29       0.0022
     43  N        103.5110   36.4980   10.4300 N.3    95  THR95      -0.1218
     44  CA       102.5990   36.0840   11.4900 C.3    95  THR95       0.1862
     45  C        102.3050   34.5920   11.3610 C.2    95  THR95       0.2287
     46  O        102.3240   33.8590   12.3490 O.2    95  THR95      -0.2866
     47  CB       101.2910   36.9190   11.4590 C.3    95  THR95       0.1770
     48  OG1      101.6180   38.3190   11.5090 O.3    95  THR95      -0.2211
     49  CG2      100.3870   36.5690   12.6560 C.3    95  THR95       0.0375
     50  N        105.6970   43.3000   20.1620 N.3   121  TRP121     -0.1241
     51  CA       104.5570   43.3830   19.2490 C.3   121  TRP121      0.1605
     52  C        103.3550   42.7560   19.9480 C.2   121  TRP121      0.2264
     53  O        103.3850   41.5740   20.3020 O.2   121  TRP121     -0.2867
     54  CB       104.8720   42.6110   17.9710 C.3   121  TRP121      0.0550
     55  CG       103.9900   42.9320   16.8060 C.ar  121  TRP121      0.0003
     56  CD1      103.5560   44.1660   16.4200 C.ar  121  TRP121      0.0946
     57  CD2      103.4840   42.0080   15.8260 C.ar  121  TRP121      0.0152
     58  NE1      102.8250   44.0680   15.2620 N.ar  121  TRP121     -0.2442
     59  CE2      102.7680   42.7560   14.8760 C.ar  121  TRP121      0.0810
     60  CE3      103.5780   40.6180   15.6660 C.ar  121  TRP121      0.0012
     61  CZ2      102.1440   42.1680   13.7730 C.ar  121  TRP121      0.0191
     62  CZ3      102.9540   40.0330   14.5670 C.ar  121  TRP121      0.0001
     63  CH2      102.2490   40.8090   13.6360 C.ar  121  TRP121      0.0015
     64  N        100.6160   41.5420   18.9650 N.3   123  ASN123     -0.1240
     65  CA       100.1310   40.3030   18.3790 C.3   123  ASN123      0.1653
     66  C        100.8860   39.0650   18.8420 C.2   123  ASN123      0.2266
     67  O        100.3910   37.9480   18.6930 O.2   123  ASN123     -0.2867
     68  CB       100.1170   40.3870   16.8600 C.3   123  ASN123      0.1155
     69  CG        98.7390   40.1060   16.2800 C.2   123  ASN123      0.2627
     70  OD1       97.7130   40.3940   16.9110 O.2   123  ASN123     -0.2716
     71  ND2       98.7040   39.5220   15.0850 N.am  123  ASN123     -0.0877
     72  N        110.0630   46.3300   17.2550 N.3   174  ASN174     -0.1240
     73  CA       108.7090   46.8550   17.2330 C.3   174  ASN174      0.1653
     74  C        108.1910   46.5400   18.6310 C.2   174  ASN174      0.2266
     75  O        108.2130   45.3750   19.0300 O.2   174  ASN174     -0.2867
     76  CB       107.8990   46.0800   16.1890 C.3   174  ASN174      0.1155
     77  CG       106.4810   46.5600   16.0800 C.2   174  ASN174      0.2627
     78  OD1      106.0040   47.2970   16.9390 O.2   174  ASN174     -0.2716
     79  ND2      105.7970   46.1580   15.0190 N.am  174  ASN174     -0.0877
     80  N        111.7660   43.1640    9.6620 N.3   205  TYR205     -0.1241
     81  CA       112.2410   44.3700    8.9910 C.3   205  TYR205      0.1605
     82  C        113.6790   44.3400    8.4510 C.2   205  TYR205      0.2264
     83  O        114.3130   45.3900    8.3230 O.2   205  TYR205     -0.2867
     84  CB       112.0730   45.5710    9.9320 C.3   205  TYR205      0.0534
     85  CG       110.6430   45.9870   10.1820 C.ar  205  TYR205     -0.0201
     86  CD1      109.9500   46.7420    9.2450 C.ar  205  TYR205     -0.0009
     87  CD2      109.9920   45.6490   11.3670 C.ar  205  TYR205     -0.0009
     88  CE1      108.6470   47.1560    9.4800 C.ar  205  TYR205      0.0417
     89  CE2      108.6820   46.0580   11.6180 C.ar  205  TYR205      0.0417
     90  CZ       108.0130   46.8130   10.6680 C.ar  205  TYR205      0.1957
     91  OH       106.7250   47.2490   10.8940 O.3   205  TYR205     -0.2866
     92  N        107.2470   43.7870    4.4920 N.3   237  LYS237     -0.1245
     93  CA       107.8140   45.1240    4.4710 C.3   237  LYS237      0.1561
     94  C        109.0310   45.3430    3.5720 C.2   237  LYS237      0.2260
     95  O        109.0360   46.2750    2.7580 O.2   237  LYS237     -0.2867
     96  CB       108.0810   45.5970    5.9030 C.3   237  LYS237      0.0271
     97  CG       106.8130   45.7690    6.7490 C.3   237  LYS237      0.0035
     98  CD       106.7200   44.7230    7.8710 C.3   237  LYS237      0.0206
     99  CE       105.3860   44.8110    8.6550 C.3   237  LYS237      0.1093
    100  NZ       105.4610   44.1960    9.9730 N.3   237  LYS237     -0.1314
    101  N        100.7960   38.0580    1.5540 N.3   245  ARG245     -0.1245
    102  CA       100.9310   37.1190    2.6520 C.3   245  ARG245      0.1563
    103  C        102.0350   36.1010    2.4050 C.2   245  ARG245      0.2260
    104  O        101.7730   34.9260    2.1400 O.2   245  ARG245     -0.2867
    105  CB        99.5930   36.4200    2.9170 C.3   245  ARG245      0.0307
    106  CG        98.4230   37.3850    3.0640 C.3   245  ARG245      0.0489
    107  CD        98.7600   38.5860    3.9400 C.3   245  ARG245      0.2205
    108  NE        98.9810   38.2070    5.3270 N.pl3 245  ARG245     -0.0865
    109  CZ        99.9220   38.7240    6.1100 C.cat 245  ARG245      0.5346
    110  NH1      100.7470   39.6560    5.6480 N.pl3 245  ARG245      0.1354
    111  NH2      100.0400   38.3080    7.3620 N.pl3 245  ARG245      0.1354
    112  N        109.6440   52.3750   13.7580 N.3   339  PHE339     -0.1241
    113  CA       109.0150   52.8730   14.9670 C.3   339  PHE339      0.1605
    114  C        109.9640   53.4810   15.9770 C.2   339  PHE339      0.2264
    115  O        111.1790   53.3080   15.9080 O.2   339  PHE339     -0.2867
    116  CB       108.2070   51.7450   15.6180 C.3   339  PHE339      0.0534
    117  CG       107.3570   50.9830   14.6380 C.ar  339  PHE339     -0.0203
    118  CD1      106.3470   51.6260   13.9310 C.ar  339  PHE339     -0.0042
    119  CD2      107.6250   49.6490   14.3570 C.ar  339  PHE339     -0.0042
    120  CE1      105.6280   50.9550   12.9580 C.ar  339  PHE339     -0.0003
    121  CE2      106.9080   48.9680   13.3810 C.ar  339  PHE339     -0.0003
    122  CZ       105.9120   49.6210   12.6810 C.ar  339  PHE339     -0.0000
    123  N        103.8380   54.9210   19.9450 N.3   365  ARG365     -0.1245
    124  CA       104.6610   54.3440   18.8920 C.3   365  ARG365      0.1563
    125  C        104.3670   55.1230   17.6260 C.2   365  ARG365      0.2260
    126  O        103.2130   55.1830   17.1870 O.2   365  ARG365     -0.2867
    127  CB       104.3210   52.8730   18.6500 C.3   365  ARG365      0.0307
    128  CG       105.2930   52.1740   17.7040 C.3   365  ARG365      0.0489
    129  CD       104.7350   50.8550   17.1890 C.3   365  ARG365      0.2205
    130  NE       103.8210   51.0600   16.0670 N.pl3 365  ARG365     -0.0865
    131  CZ       103.1490   50.0930   15.4490 C.cat 365  ARG365      0.5346
    132  NH1      103.2760   48.8360   15.8320 N.pl3 365  ARG365      0.1354
    133  NH2      102.3650   50.3850   14.4240 N.pl3 365  ARG365      0.1354
@<TRIPOS>BOND
     1   101   102    1
     2   104   103    2
     3   103   102    1
     4   102   105    1
     5    95    94    2
     6   105   106    1
     7   106   107    1
     8    94    93    1
     9   107   108    1
    10    93    92    1
    11    93    96    1
    12   108   109    2
    13   110   109    1
    14    40    42    1
    15    40    41    1
    16    40    37    1
    17    96    97    1
    18    38    37    1
    19    38    39    2
    20   109   111    1
    21    37    36    1
    22    97    98    1
    23    98    99    1
    24    36    34   am
    25    83    82    2
    26    82    81    1
    27    35    34    2
    28    99   100    1
    29    34    33    1
    30    30    29    1
    31    81    80    1
    32    81    84    1
    33    86    88   ar
    34    86    85   ar
    35    88    90   ar
    36    28    27    2
    37    84    85    1
    38    31    29    1
    39    85    87   ar
    40    29    26    1
    41    33    32    1
    42    43    44    1
    43    27    32   am
    44    27    26    1
    45    90    91    1
    46    90    89   ar
    47    26    25    1
    48    24    22    1
    49    45    44    1
    50    45    46    2
    51    87    89   ar
    52    47    44    1
    53    47    48    1
    54    47    49    1
    55    22    23    1
    56    22    21    1
    57   122   120   ar
    58   122   121   ar
    59    20    19    2
    60   120   118   ar
    61    21    18    1
    62    18    19    1
    63    18    17    1
    64   121   119   ar
    65    63    61   ar
    66    63    62   ar
    67    12    11    2
    68   112   113    1
    69    61    59   ar
    70    15    13    1
    71   118   117   ar
    72    17    11   am
    73   119   117   ar
    74    11    10    1
    75   133   131    1
    76    62    60   ar
    77   117   116    1
    78    59    58   ar
    79    59    57   ar
    80    13    10    1
    81    13    14    1
    82   113   116    1
    83   113   114    1
    84    79    77   am
    85    71    69   am
    86    58    56   ar
    87   131   132    1
    88   131   130    2
    89    10     9    1
    90    60    57   ar
    91    16    14    1
    92     8     6   ar
    93    57    55   ar
    94   115   114    2
    95   130   129    1
    96    77    76    1
    97    77    78    2
    98    76    73    1
    99    69    68    1
   100    69    70    2
   101    56    55   ar
   102     6     5    1
   103     6     7   ar
   104     5     2    1
   105    55    54    1
   106    68    65    1
   107     4     3    2
   108   126   125    2
   109   129   128    1
   110    73    72    1
   111    73    74    1
   112   125   124    1
   113   128   127    1
   114     3     2    1
   115     2     1    1
   116    54    51    1
   117    65    66    1
   118    65    64    1
   119    74    75    2
   120   127   124    1
   121    67    66    2
   122   124   123    1
   123    51    52    1
   124    51    50    1
   125    52    53    2
