@<TRIPOS>MOLECULE
tmp/2aylA02.pdb
 92 92 0 0 0
SMALL
GASTEIGER

@<TRIPOS>ATOM
      1  N         18.7620   26.2710  208.5260 N.3    60  PHE60      -0.1227
      2  CA        17.9900   26.3840  209.7540 C.3    60  PHE60       0.1736
      3  C         18.9250   26.6370  210.9360 C.2    60  PHE60       0.2595
      4  O         18.7300   27.5770  211.7040 O.2    60  PHE60      -0.2718
      5  CB        17.2010   25.1000  209.9920 C.3    60  PHE60       0.0547
      6  CG        16.3630   25.1300  211.2360 C.ar   60  PHE60      -0.0202
      7  CD1       15.1490   25.8090  211.2560 C.ar   60  PHE60      -0.0042
      8  CD2       16.8020   24.5030  212.3970 C.ar   60  PHE60      -0.0042
      9  CE1       14.3840   25.8650  212.4200 C.ar   60  PHE60      -0.0003
     10  CE2       16.0440   24.5540  213.5670 C.ar   60  PHE60      -0.0003
     11  CZ        14.8340   25.2360  213.5780 C.ar   60  PHE60      -0.0000
     12  N         19.9410   25.7900  211.0760 N.am   61  LEU61      -0.1980
     13  CA        20.9150   25.9140  212.1600 C.3    61  LEU61       0.1596
     14  C         21.5680   27.2920  212.2110 C.2    61  LEU61       0.2287
     15  O         21.8000   27.8380  213.2910 O.2    61  LEU61      -0.2864
     16  CB        22.0110   24.8550  212.0090 C.3    61  LEU61       0.0297
     17  CG        21.7290   23.4300  212.4900 C.3    61  LEU61       0.0022
     18  CD1       20.4510   22.9090  211.8670 C.3    61  LEU61       0.0001
     19  CD2       22.9070   22.5380  212.1290 C.3    61  LEU61       0.0001
     20  N         18.9660   30.2150  213.5930 N.3    64  HIS64      -0.1226
     21  CA        18.2460   29.9720  214.8380 C.3    64  HIS64       0.1752
     22  C         19.2090   29.7910  216.0060 C.2    64  HIS64       0.2596
     23  O         20.4070   29.6010  215.8060 O.2    64  HIS64      -0.2718
     24  CB        17.3610   28.7330  214.6870 C.3    64  HIS64       0.0759
     25  CG        16.2360   28.9150  213.7170 C.ar   64  HIS64       0.0818
     26  ND1       15.0340   29.4910  214.0710 N.ar   64  HIS64      -0.2268
     27  CD2       16.1520   28.6550  212.3920 C.ar   64  HIS64       0.1154
     28  CE1       14.2590   29.5780  213.0050 C.ar   64  HIS64       0.1986
     29  NE2       14.9130   29.0780  211.9720 N.ar   64  HIS64      -0.2212
     30  N         18.6730   29.8570  217.2230 N.am   65  GLY65      -0.1957
     31  CA        19.4910   29.7020  218.4120 C.3    65  GLY65       0.1869
     32  C         20.4900   30.8320  218.5580 C.2    65  GLY65       0.2309
     33  O         21.6870   30.5930  218.7120 O.2    65  GLY65      -0.2863
     34  N         21.2370   32.7180  220.9650 N.3    67  TRP67      -0.1227
     35  CA        22.0220   32.6410  222.1900 C.3    67  TRP67       0.1737
     36  C         23.2870   31.8140  221.9920 C.2    67  TRP67       0.2595
     37  O         24.3650   32.1920  222.4530 O.2    67  TRP67      -0.2718
     38  CB        21.1880   32.0400  223.3320 C.3    67  TRP67       0.0564
     39  CG        20.7140   30.6400  223.0700 C.ar   67  TRP67       0.0003
     40  CD1       19.6310   30.2610  222.3240 C.ar   67  TRP67       0.0946
     41  CD2       21.3370   29.4300  223.5160 C.ar   67  TRP67       0.0152
     42  NE1       19.5440   28.8890  222.2780 N.ar   67  TRP67      -0.2442
     43  CE2       20.5780   28.3540  223.0010 C.ar   67  TRP67       0.0810
     44  CE3       22.4650   29.1500  224.3000 C.ar   67  TRP67       0.0012
     45  CZ2       20.9120   27.0170  223.2450 C.ar   67  TRP67       0.0191
     46  CZ3       22.7970   27.8200  224.5420 C.ar   67  TRP67       0.0001
     47  CH2       22.0210   26.7710  224.0150 C.ar   67  TRP67       0.0015
     48  N         23.1560   30.6870  221.3010 N.am   68  LEU68      -0.1966
     49  CA        24.2970   29.8170  221.0600 C.3    68  LEU68       0.1728
     50  C         25.3160   30.4790  220.1360 C.2    68  LEU68       0.2616
     51  O         26.5240   30.4070  220.3740 O.2    68  LEU68      -0.2715
     52  CB        23.8300   28.4950  220.4530 C.3    68  LEU68       0.0311
     53  CG        24.9330   27.4570  220.2470 C.3    68  LEU68       0.0022
     54  CD1       25.5300   27.0590  221.5940 C.3    68  LEU68       0.0001
     55  CD2       24.3590   26.2430  219.5400 C.3    68  LEU68       0.0001
     56  N         24.8290   31.1280  219.0820 N.am   69  TRP69      -0.1974
     57  CA        25.7210   31.7950  218.1440 C.3    69  TRP69       0.1640
     58  C         26.4810   32.9430  218.8010 C.2    69  TRP69       0.2290
     59  O         27.6590   33.1500  218.5100 O.2    69  TRP69      -0.2864
     60  CB        24.9430   32.2940  216.9180 C.3    69  TRP69       0.0576
     61  CG        24.5390   31.1750  216.0010 C.ar   69  TRP69       0.0006
     62  CD1       23.2810   30.6720  215.8190 C.ar   69  TRP69       0.0946
     63  CD2       25.4130   30.3640  215.2030 C.ar   69  TRP69       0.0152
     64  NE1       23.3180   29.5950  214.9620 N.ar   69  TRP69      -0.2442
     65  CE2       24.6130   29.3840  214.5710 C.ar   69  TRP69       0.0810
     66  CE3       26.7950   30.3670  214.9650 C.ar   69  TRP69       0.0012
     67  CZ2       25.1490   28.4150  213.7160 C.ar   69  TRP69       0.0191
     68  CZ3       27.3290   29.4040  214.1150 C.ar   69  TRP69       0.0001
     69  CH2       26.5050   28.4410  213.5020 C.ar   69  TRP69       0.0015
     70  N         29.4040   31.4060  220.3960 N.3    72  VAL72      -0.1245
     71  CA        30.3080   30.9540  219.3430 C.3    72  VAL72       0.1561
     72  C         31.0770   32.0900  218.6720 C.2    72  VAL72       0.2260
     73  O         32.2800   31.9780  218.4420 O.2    72  VAL72      -0.2867
     74  CB        29.5330   30.1840  218.2410 C.3    72  VAL72       0.0252
     75  CG1       30.3810   30.0660  216.9850 C.3    72  VAL72       0.0019
     76  CG2       29.1470   28.8020  218.7460 C.3    72  VAL72       0.0019
     77  N         35.7280   29.3610  217.6540 N.3    77  ILE77      -0.1245
     78  CA        34.7970   28.5260  216.9010 C.3    77  ILE77       0.1561
     79  C         34.3230   29.2970  215.6700 C.2    77  ILE77       0.2260
     80  O         34.0070   28.7080  214.6350 O.2    77  ILE77      -0.2867
     81  CB        33.5660   28.1480  217.7480 C.3    77  ILE77       0.0252
     82  CG1       34.0030   27.4060  219.0130 C.3    77  ILE77       0.0019
     83  CG2       32.6280   27.2670  216.9350 C.3    77  ILE77       0.0019
     84  CD1       34.6500   26.0640  218.7430 C.3    77  ILE77       0.0001
     85  N         34.5680   27.7140  211.8730 N.3    81  LEU81      -0.1245
     86  CA        33.4230   27.6170  210.9750 C.3    81  LEU81       0.1561
     87  C         33.5900   28.4560  209.7100 C.2    81  LEU81       0.2260
     88  O         33.1590   28.0480  208.6320 O.2    81  LEU81      -0.2867
     89  CB        32.1370   28.0270  211.7020 C.3    81  LEU81       0.0270
     90  CG        31.6920   27.0930  212.8330 C.3    81  LEU81       0.0019
     91  CD1       30.4540   27.6580  213.5100 C.3    81  LEU81       0.0001
     92  CD2       31.4090   25.7030  212.2740 C.3    81  LEU81       0.0001
@<TRIPOS>BOND
     1     1     2    1
     2    88    87    2
     3    87    86    1
     4     2     5    1
     5     2     3    1
     6     5     6    1
     7     3    12   am
     8     3     4    2
     9    86    89    1
    10    86    85    1
    11    12    13    1
    12     6     7   ar
    13     6     8   ar
    14     7     9   ar
    15    89    90    1
    16    18    17    1
    17    29    27   ar
    18    29    28   ar
    19    16    13    1
    20    16    17    1
    21    19    17    1
    22    13    14    1
    23    14    15    2
    24    92    90    1
    25    27    25   ar
    26     8    10   ar
    27     9    11   ar
    28    90    91    1
    29    28    26   ar
    30    69    67   ar
    31    69    68   ar
    32    10    11   ar
    33    20    21    1
    34    67    65   ar
    35    25    26   ar
    36    25    24    1
    37    68    66   ar
    38    65    64   ar
    39    65    63   ar
    40    80    79    2
    41    24    21    1
    42    21    22    1
    43    64    62   ar
    44    66    63   ar
    45    63    61   ar
    46    79    78    1
    47    23    22    2
    48    62    61   ar
    49    61    60    1
    50    22    30   am
    51    78    77    1
    52    78    81    1
    53    60    57    1
    54    83    81    1
    55    75    74    1
    56    30    31    1
    57    81    82    1
    58    57    58    1
    59    57    56    1
    60    74    76    1
    61    74    71    1
    62    31    32    1
    63    73    72    2
    64    59    58    2
    65    32    33    2
    66    72    71    1
    67    84    82    1
    68    56    50   am
    69    71    70    1
    70    55    53    1
    71    50    51    2
    72    50    49    1
    73    53    52    1
    74    53    54    1
    75    52    49    1
    76    34    35    1
    77    49    48    1
    78    48    36   am
    79    36    35    1
    80    36    37    2
    81    35    38    1
    82    42    40   ar
    83    42    43   ar
    84    40    39   ar
    85    43    45   ar
    86    43    41   ar
    87    39    38    1
    88    39    41   ar
    89    45    47   ar
    90    41    44   ar
    91    47    46   ar
    92    44    46   ar
