@<TRIPOS>MOLECULE
tmp/2aypA00.pdb
 176 165 0 0 0
SMALL
GASTEIGER

@<TRIPOS>ATOM
      1  N          2.4630   -8.6220   22.5530 N.3    14  LEU14      -0.1231
      2  CA         1.9570   -7.6700   21.5710 C.3    14  LEU14       0.1693
      3  C          1.8650   -8.3210   20.1940 C.2    14  LEU14       0.2592
      4  O          1.0030   -7.9850   19.3800 O.2    14  LEU14      -0.2718
      5  CB         2.8870   -6.4630   21.5030 C.3    14  LEU14       0.0284
      6  CG         2.9590   -5.6060   22.7650 C.3    14  LEU14       0.0019
      7  CD1        4.1470   -4.6740   22.6920 C.3    14  LEU14       0.0001
      8  CD2        1.6660   -4.8280   22.9150 C.3    14  LEU14       0.0001
      9  N          2.7800   -9.2510   19.9520 N.am   15  GLY15      -0.1957
     10  CA         2.8310   -9.9660   18.6940 C.3    15  GLY15       0.1869
     11  C          3.7550  -11.1550   18.8730 C.2    15  GLY15       0.2309
     12  O          4.5490  -11.1760   19.8140 O.2    15  GLY15      -0.2863
     13  N          7.1970  -10.6090   20.8880 N.3    22  VAL22      -0.1245
     14  CA         7.2930   -9.2490   21.3820 C.3    22  VAL22       0.1561
     15  C          6.2640   -9.0340   22.4830 C.2    22  VAL22       0.2260
     16  O          5.0700   -8.9370   22.2120 O.2    22  VAL22      -0.2867
     17  CB         7.0330   -8.2420   20.2470 C.3    22  VAL22       0.0252
     18  CG1        7.1480   -6.8210   20.7690 C.3    22  VAL22       0.0019
     19  CG2        8.0150   -8.4810   19.1140 C.3    22  VAL22       0.0019
     20  N          7.9270   -1.4540   24.1940 N.3    35  ALA35      -0.1245
     21  CA         7.8340   -2.6590   23.3900 C.3    35  ALA35       0.1562
     22  C          9.1710   -3.3660   23.4760 C.2    35  ALA35       0.2260
     23  O         10.2220   -2.7550   23.2870 O.2    35  ALA35      -0.2867
     24  CB         7.5220   -2.2990   21.9480 C.3    35  ALA35       0.0290
     25  N         11.1700   -6.5890   21.9500 N.3    37  LYS37      -0.1245
     26  CA        11.2510   -7.6870   21.0060 C.3    37  LYS37       0.1561
     27  C         12.3330   -8.6060   21.5430 C.2    37  LYS37       0.2260
     28  O         13.4660   -8.1850   21.7810 O.2    37  LYS37      -0.2867
     29  CB        11.6200   -7.1770   19.6080 C.3    37  LYS37       0.0271
     30  CG        11.5190   -8.2260   18.5130 C.3    37  LYS37       0.0035
     31  CD        12.0120   -7.6710   17.1970 C.3    37  LYS37       0.0206
     32  CE        11.4800   -8.4710   16.0240 C.3    37  LYS37       0.1093
     33  NZ        11.7860   -7.8250   14.7110 N.3    37  LYS37      -0.1314
     34  N         19.5190   -5.3300   12.0120 N.3    54  GLU54      -0.1245
     35  CA        18.3060   -4.7360   12.5510 C.3    54  GLU54       0.1567
     36  C         18.5850   -3.7090   13.6430 C.2    54  GLU54       0.2260
     37  O         17.9780   -2.6430   13.6660 O.2    54  GLU54      -0.2867
     38  CB        17.3840   -5.8260   13.0930 C.3    54  GLU54       0.0388
     39  CG        16.0540   -5.3060   13.6060 C.3    54  GLU54       0.1160
     40  CD        15.0200   -6.4080   13.7640 C.2    54  GLU54       0.3649
     41  OE1       13.8860   -6.1140   14.2000 O.co2  54  GLU54      -0.2457
     42  OE2       15.3420   -7.5720   13.4470 O.co2  54  GLU54      -0.2457
     43  N         18.2560    0.6560   13.4880 N.3    58  ASN58      -0.1240
     44  CA        17.5330    1.3950   14.5100 C.3    58  ASN58       0.1653
     45  C         18.2940    2.5760   15.1090 C.2    58  ASN58       0.2266
     46  O         17.7960    3.7090   15.1090 O.2    58  ASN58      -0.2867
     47  CB        17.0810    0.4440   15.6110 C.3    58  ASN58       0.1155
     48  CG        15.8600   -0.3600   15.2110 C.2    58  ASN58       0.2627
     49  OD1       14.7880    0.1950   14.9610 O.2    58  ASN58      -0.2716
     50  ND2       16.0160   -1.6720   15.1430 N.am   58  ASN58      -0.0877
     51  N         17.9070    5.5090   13.0310 N.3    61  LEU61      -0.1245
     52  CA        16.5540    6.0370   12.9700 C.3    61  LEU61       0.1561
     53  C         16.0510    6.8270   14.1570 C.2    61  LEU61       0.2260
     54  O         16.1250    6.3740   15.2920 O.2    61  LEU61      -0.2867
     55  CB        15.5860    4.8910   12.7350 C.3    61  LEU61       0.0270
     56  CG        16.0330    3.8940   11.6780 C.3    61  LEU61       0.0019
     57  CD1       15.0930    2.7200   11.6860 C.3    61  LEU61       0.0001
     58  CD2       16.0480    4.5590   10.3190 C.3    61  LEU61       0.0001
     59  N          8.6650    6.8040   13.0580 N.3    66  VAL66      -0.1231
     60  CA         9.4140    5.5600   13.0840 C.3    66  VAL66       0.1692
     61  C          9.4870    5.0790   14.5250 C.2    66  VAL66       0.2592
     62  O         10.1620    5.7020   15.3350 O.2    66  VAL66      -0.2718
     63  CB        10.8460    5.7680   12.6200 C.3    66  VAL66       0.0266
     64  CG1       11.3650    4.5060   11.9820 C.3    66  VAL66       0.0020
     65  CG2       10.9200    6.9510   11.6900 C.3    66  VAL66       0.0020
     66  N          8.7990    3.9880   14.8500 N.am   67  VAL67      -0.1966
     67  CA         8.8340    3.4520   16.2130 C.3    67  VAL67       0.1727
     68  C         10.2390    3.6390   16.7730 C.2    67  VAL67       0.2616
     69  O         11.1990    3.0910   16.2420 O.2    67  VAL67      -0.2715
     70  CB         8.5190    1.9560   16.2350 C.3    67  VAL67       0.0290
     71  CG1        8.3430    1.4940   17.6720 C.3    67  VAL67       0.0023
     72  CG2        7.2790    1.6700   15.3970 C.3    67  VAL67       0.0023
     73  N         10.3630    4.4080   17.8480 N.am   68  LYS68      -0.1977
     74  CA        11.6790    4.6730   18.4150 C.3    68  LYS68       0.1596
     75  C         12.4020    3.4590   18.9760 C.2    68  LYS68       0.2287
     76  O         11.7840    2.5280   19.4940 O.2    68  LYS68      -0.2864
     77  CB        11.5860    5.7580   19.4940 C.3    68  LYS68       0.0298
     78  CG        12.9460    6.2770   19.9450 C.3    68  LYS68       0.0038
     79  CD        12.8250    7.5470   20.7790 C.3    68  LYS68       0.0206
     80  CE        14.2020    8.1910   21.0300 C.3    68  LYS68       0.1093
     81  NZ        14.1000    9.5440   21.6770 N.3    68  LYS68      -0.1314
     82  N         15.2160   -6.2850   22.4430 N.3    81  LEU81      -0.1245
     83  CA        15.0800   -5.0760   21.6420 C.3    81  LEU81       0.1561
     84  C         14.1380   -4.0690   22.2990 C.2    81  LEU81       0.2260
     85  O         12.9160   -4.1610   22.1730 O.2    81  LEU81      -0.2867
     86  CB        14.5620   -5.4290   20.2470 C.3    81  LEU81       0.0270
     87  CG        15.6270   -5.5710   19.1590 C.3    81  LEU81       0.0019
     88  CD1       16.7060   -6.5370   19.6160 C.3    81  LEU81       0.0001
     89  CD2       14.9790   -6.0470   17.8680 C.3    81  LEU81       0.0001
     90  N         11.9580   -1.1650   22.5210 N.3    83  LEU83      -0.1231
     91  CA        11.2780   -0.3480   21.5260 C.3    83  LEU83       0.1693
     92  C         10.1150    0.4620   22.0520 C.2    83  LEU83       0.2592
     93  O          9.5590    0.1720   23.1080 O.2    83  LEU83      -0.2718
     94  CB        10.7950   -1.2410   20.3800 C.3    83  LEU83       0.0284
     95  CG        11.9370   -1.8090   19.5390 C.3    83  LEU83       0.0019
     96  CD1       11.5170   -3.0790   18.8680 C.3    83  LEU83       0.0001
     97  CD2       12.3750   -0.7650   18.5400 C.3    83  LEU83       0.0001
     98  N          9.7570    1.4860   21.2890 N.am   84  GLU84      -0.1966
     99  CA         8.6560    2.3760   21.6320 C.3    84  GLU84       0.1733
    100  C          7.3170    1.6630   21.5860 C.2    84  GLU84       0.2616
    101  O          7.0630    0.8580   20.6900 O.2    84  GLU84      -0.2715
    102  CB         8.6370    3.5600   20.6680 C.3    84  GLU84       0.0429
    103  CG         7.2790    4.1930   20.4560 C.3    84  GLU84       0.1163
    104  CD         7.3710    5.4440   19.6020 C.2    84  GLU84       0.3649
    105  OE1        8.0780    5.4010   18.5660 O.co2  84  GLU84      -0.2457
    106  OE2        6.7410    6.4640   19.9640 O.co2  84  GLU84      -0.2457
    107  N          6.4610    1.9610   22.5570 N.am   85  TYR85      -0.1960
    108  CA         5.1400    1.3460   22.6060 C.3    85  TYR85       0.1771
    109  C          4.1100    2.2230   21.9070 C.2    85  TYR85       0.2620
    110  O          4.0910    3.4460   22.0940 O.2    85  TYR85      -0.2715
    111  CB         4.7020    1.1190   24.0560 C.3    85  TYR85       0.0574
    112  CG         3.2970    0.5580   24.1950 C.ar   85  TYR85      -0.0198
    113  CD1        2.9640   -0.6770   23.6500 C.ar   85  TYR85      -0.0009
    114  CD2        2.3110    1.2590   24.8760 C.ar   85  TYR85      -0.0009
    115  CE1        1.6930   -1.1990   23.7820 C.ar   85  TYR85       0.0417
    116  CE2        1.0370    0.7400   25.0100 C.ar   85  TYR85       0.0417
    117  CZ         0.7390   -0.4880   24.4620 C.ar   85  TYR85       0.1957
    118  OH        -0.5170   -1.0140   24.6070 O.3    85  TYR85      -0.2866
    119  N          3.2630    1.5840   21.1000 N.am   86  CYS86      -0.1954
    120  CA         2.2040    2.2660   20.3620 C.3    86  CYS86       0.1843
    121  C          0.8790    1.6080   20.7230 C.2    86  CYS86       0.2626
    122  O          0.4630    0.6390   20.0910 O.2    86  CYS86      -0.2714
    123  CB         2.4250    2.1440   18.8550 C.3    86  CYS86       0.0997
    124  SG         4.1440    2.2290   18.3280 S.3    86  CYS86      -0.0797
    125  N          0.2330    2.1400   21.7550 N.am   87  SER87      -0.1950
    126  CA        -1.0510    1.6440   22.2440 C.3    87  SER87       0.1924
    127  C         -2.0890    1.4460   21.1330 C.2    87  SER87       0.2314
    128  O         -2.8360    0.4610   21.1310 O.2    87  SER87      -0.2863
    129  CB        -1.6060    2.6280   23.2670 C.3    87  SER87       0.2116
    130  OG        -1.7810    3.9090   22.6770 O.3    87  SER87      -0.2180
    131  N         -2.1270    0.2320   18.3420 N.3    89  GLY89      -0.1210
    132  CA        -2.1840   -1.0550   17.6740 C.3    89  GLY89       0.1956
    133  C         -1.6530   -0.9410   16.2640 C.2    89  GLY89       0.2611
    134  O         -0.8290   -0.0810   15.9770 O.2    89  GLY89      -0.2717
    135  N         -2.1300   -1.7970   15.3750 N.am   90  GLU90      -0.1979
    136  CA        -1.6830   -1.7720   13.9890 C.3    90  GLU90       0.1602
    137  C         -2.6970   -1.0590   13.0950 C.2    90  GLU90       0.2287
    138  O         -3.9010   -1.0940   13.3470 O.2    90  GLU90      -0.2864
    139  CB        -1.4850   -3.2000   13.4860 C.3    90  GLU90       0.0415
    140  CG        -0.8310   -4.1290   14.5000 C.3    90  GLU90       0.1163
    141  CD        -0.4520   -5.4710   13.9130 C.2    90  GLU90       0.3649
    142  OE1       -1.2550   -6.0140   13.1230 O.co2  90  GLU90      -0.2457
    143  OE2        0.6410   -5.9820   14.2530 O.co2  90  GLU90      -0.2457
    144  N          2.1330    1.0530   12.8330 N.3   136  LEU136     -0.1245
    145  CA         1.4410    1.1330   14.1040 C.3   136  LEU136      0.1561
    146  C          0.8870    2.5110   14.3580 C.2   136  LEU136      0.2260
    147  O          1.3680    3.5030   13.8110 O.2   136  LEU136     -0.2867
    148  CB         2.3870    0.7740   15.2450 C.3   136  LEU136      0.0270
    149  CG         3.1170   -0.5630   15.1120 C.3   136  LEU136      0.0019
    150  CD1        4.0780   -0.6940   16.2800 C.3   136  LEU136      0.0001
    151  CD2        2.1260   -1.7310   15.0720 C.3   136  LEU136      0.0001
    152  N          7.0390    0.5020   11.3630 N.3   146  SER146     -0.1202
    153  CA         7.5350   -0.4450   12.3440 C.3   146  SER146      0.2020
    154  C          8.2080   -1.6530   11.7190 C.2   146  SER146      0.2619
    155  O          8.2980   -1.7540   10.5030 O.2   146  SER146     -0.2717
    156  CB         6.3670   -0.8890   13.2270 C.3   146  SER146      0.2103
    157  OG         6.7860   -1.7600   14.2460 O.3   146  SER146     -0.2182
    158  N          8.6870   -2.5550   12.5730 N.am  147  ASP147     -0.1959
    159  CA         9.3690   -3.7850   12.1620 C.3   147  ASP147      0.1840
    160  C         10.4740   -3.5430   11.1290 C.2   147  ASP147      0.2622
    161  O         10.2110   -3.5740    9.9290 O.2   147  ASP147     -0.2715
    162  CB         8.3570   -4.7770   11.5830 C.3   147  ASP147      0.1450
    163  CG         8.8400   -6.2190   11.6560 C.2   147  ASP147      0.3671
    164  OD1       10.0650   -6.4460   11.5250 O.co2 147  ASP147     -0.2456
    165  OD2        7.9890   -7.1240   11.8330 O.co2 147  ASP147     -0.2456
    166  N         11.7050   -3.3150   11.5810 N.am  148  PHE148     -0.1974
    167  CA        12.8070   -3.0820   10.6520 C.3   148  PHE148      0.1639
    168  C         13.6680   -4.3070   10.3750 C.2   148  PHE148      0.2290
    169  O         14.7680   -4.2000    9.8340 O.2   148  PHE148     -0.2864
    170  CB        13.6900   -1.9530   11.1590 C.3   148  PHE148      0.0560
    171  CG        13.1570   -0.5950   10.8380 C.ar  148  PHE148     -0.0200
    172  CD1       12.1220   -0.0430   11.5790 C.ar  148  PHE148     -0.0042
    173  CD2       13.6560    0.1160    9.7580 C.ar  148  PHE148     -0.0042
    174  CE1       11.5970    1.1900   11.2450 C.ar  148  PHE148     -0.0003
    175  CE2       13.1330    1.3490    9.4190 C.ar  148  PHE148     -0.0003
    176  CZ        12.1050    1.8850   10.1610 C.ar  148  PHE148     -0.0000
@<TRIPOS>BOND
     1   175   173   ar
     2   175   176   ar
     3   173   171   ar
     4   169   168    2
     5   161   160    2
     6   176   174   ar
     7    58    56    1
     8   168   167    1
     9   155   154    2
    10   167   170    1
    11   167   166    1
    12   171   170    1
    13   171   172   ar
    14   160   166   am
    15   160   159    1
    16   174   172   ar
    17   152   153    1
    18   164   163   ar
    19   162   163    1
    20   162   159    1
    21   163   165   ar
    22    56    57    1
    23    56    55    1
    24    65    63    1
    25   154   153    1
    26   154   158   am
    27    64    63    1
    28    34    35    1
    29   159   158    1
    30   153   156    1
    31    35    38    1
    32    35    36    1
    33    63    60    1
    34    55    52    1
    35   144   145    1
    36    52    51    1
    37    52    53    1
    38    59    60    1
    39    60    61    1
    40    38    39    1
    41   137   138    2
    42   137   136    1
    43   142   141   ar
    44   156   157    1
    45    42    40   ar
    46   139   136    1
    47   139   140    1
    48    43    44    1
    49    39    40    1
    50    36    37    2
    51    40    41   ar
    52   147   146    2
    53   141   143   ar
    54   141   140    1
    55   136   135    1
    56   145   146    1
    57   145   148    1
    58    53    54    2
    59    44    45    1
    60    44    47    1
    61    61    66   am
    62    61    62    2
    63    33    32    1
    64    66    67    1
    65    49    48    2
    66   151   149    1
    67    45    46    2
    68   149   148    1
    69   149   150    1
    70    50    48   am
    71    48    47    1
    72   135   133   am
    73    72    70    1
    74   134   133    2
    75    32    31    1
    76    67    70    1
    77    67    68    1
    78    70    71    1
    79    69    68    2
    80   133   132    1
    81    68    73   am
    82    31    30    1
    83   132   131    1
    84    73    74    1
    85    89    87    1
    86   124   123    1
    87    74    75    1
    88    74    77    1
    89    30    29    1
    90    97    95    1
    91   105   104   ar
    92    10    11    1
    93    10     9    1
    94   123   120    1
    95    96    95    1
    96    11    12    2
    97    75    76    2
    98    19    17    1
    99    87    88    1
   100    87    86    1
   101     4     3    2
   102    77    78    1
   103    95    94    1
   104   104   106   ar
   105   104   103    1
   106    29    26    1
   107    78    79    1
   108     9     3   am
   109   122   121    2
   110     3     2    1
   111    86    83    1
   112    17    18    1
   113    17    14    1
   114   120   121    1
   115   120   119    1
   116    94    91    1
   117   103   102    1
   118   102    99    1
   119   101   100    2
   120   121   125   am
   121    79    80    1
   122    13    14    1
   123    26    27    1
   124    26    25    1
   125    80    81    1
   126   119   109   am
   127   128   127    2
   128   127   126    1
   129    98    99    1
   130    98    92   am
   131    14    15    1
   132     5     2    1
   133     5     6    1
   134    91    92    1
   135    91    90    1
   136    27    28    2
   137     2     1    1
   138   100    99    1
   139   100   107   am
   140    83    84    1
   141    83    82    1
   142   125   126    1
   143   109   110    2
   144   109   108    1
   145    24    21    1
   146    92    93    2
   147    85    84    2
   148    16    15    2
   149   126   129    1
   150   107   108    1
   151   108   111    1
   152   130   129    1
   153     7     6    1
   154     6     8    1
   155    23    22    2
   156    21    22    1
   157    21    20    1
   158   113   115   ar
   159   113   112   ar
   160   115   117   ar
   161   111   112    1
   162   112   114   ar
   163   117   118    1
   164   117   116   ar
   165   114   116   ar
