@<TRIPOS>MOLECULE
tmp/2aysA03.pdb
 77 76 0 0 0
SMALL
GASTEIGER

@<TRIPOS>ATOM
      1  N         20.0980   18.5070    9.1460 N.3    88  PRO88      -0.2102
      2  CA        18.8300   18.0670    9.8510 C.3    88  PRO88       0.1504
      3  C         18.6780   16.5040    9.8300 C.2    88  PRO88       0.2576
      4  O         19.3080   15.8460    8.9950 O.2    88  PRO88      -0.2718
      5  CB        17.7920   18.9760    9.2100 C.3    88  PRO88       0.0282
      6  CG        18.5740   20.2730    9.0610 C.3    88  PRO88       0.0208
      7  CD        20.0300   19.9410    8.9220 C.3    88  PRO88       0.0893
      8  N         17.9190   15.8960   10.7320 N.am   89  THR89      -0.1953
      9  CA        17.7650   14.4480   10.6300 C.3    89  THR89       0.1897
     10  C         16.3130   14.2220   10.2080 C.2    89  THR89       0.2313
     11  O         15.3590   14.6840   10.8340 O.2    89  THR89      -0.2863
     12  CB        18.1960   13.7240   11.9170 C.3    89  THR89       0.1794
     13  OG1       17.5470   14.3140   13.0620 O.3    89  THR89      -0.2208
     14  CG2       19.7120   13.8070   12.0870 C.3    89  THR89       0.0378
     15  N         11.8870    8.8710   14.8250 N.3   252  PRO252     -0.2102
     16  CA        13.1330    9.6150   15.0360 C.3   252  PRO252      0.1504
     17  C         14.3480    8.6960   14.8600 C.2   252  PRO252      0.2575
     18  O         14.3440    7.5140   15.2710 O.2   252  PRO252     -0.2718
     19  CB        13.0660   10.0740   16.5180 C.3   252  PRO252      0.0282
     20  CG        11.7640    9.6290   17.0670 C.3   252  PRO252      0.0208
     21  CD        11.0970    8.7050   16.0680 C.3   252  PRO252      0.0893
     22  N         15.3980    9.2280   14.2380 N.am  253  ASN253     -0.1975
     23  CA        16.5840    8.4320   14.0130 C.3   253  ASN253      0.1688
     24  C         17.1910    7.8850   15.3230 C.2   253  ASN253      0.2292
     25  O         17.0350    8.5060   16.4070 O.2   253  ASN253     -0.2864
     26  CB        17.6250    9.2570   13.3020 C.3   253  ASN253      0.1181
     27  CG        17.2860    9.4770   11.8030 C.2   253  ASN253      0.2629
     28  OD1       16.4110    8.8110   11.2280 O.2   253  ASN253     -0.2716
     29  ND2       17.9990   10.3600   11.1860 N.am  253  ASN253     -0.0877
     30  N         22.9510   17.7900   17.1410 N.3   310  LEU310     -0.1231
     31  CA        21.5180   17.9860   17.2520 C.3   310  LEU310      0.1693
     32  C         20.9930   19.4450   17.0690 C.2   310  LEU310      0.2592
     33  O         20.0690   19.6880   16.3190 O.2   310  LEU310     -0.2718
     34  CB        21.0080   17.3250   18.5490 C.3   310  LEU310      0.0284
     35  CG        21.3220   15.8200   18.4980 C.3   310  LEU310      0.0019
     36  CD1       20.8770   15.0960   19.7370 C.3   310  LEU310      0.0001
     37  CD2       20.6440   15.2310   17.2520 C.3   310  LEU310      0.0001
     38  N         21.5110   20.4320   17.7490 N.am  311  GLY311     -0.1957
     39  CA        20.9820   21.7750   17.4160 C.3   311  GLY311      0.1869
     40  C         19.6750   21.9990   18.1410 C.2   311  GLY311      0.2309
     41  O         18.6910   21.2490   17.9770 O.2   311  GLY311     -0.2863
     42  N         18.4350   19.4920   22.3910 N.3   314  PRO314     -0.2116
     43  CA        17.1380   18.9650   22.8040 C.3   314  PRO314      0.1372
     44  C         17.1890   18.0280   24.0160 C.2   314  PRO314      0.2244
     45  O         18.1640   17.2650   24.1970 O.2   314  PRO314     -0.2868
     46  CB        16.6560   18.1620   21.5830 C.3   314  PRO314      0.0268
     47  CG        17.9070   17.8520   20.7950 C.3   314  PRO314      0.0207
     48  CD        18.9490   18.9030   21.1340 C.3   314  PRO314      0.0892
     49  N         12.0710   16.4240   23.5390 N.3   318  GLU318     -0.1231
     50  CA        12.1420   17.2230   22.3330 C.3   318  GLU318      0.1699
     51  C         12.6910   16.4160   21.1520 C.2   318  GLU318      0.2592
     52  O         12.2180   16.5620   20.0240 O.2   318  GLU318     -0.2718
     53  CB        13.0120   18.4670   22.5280 C.3   318  GLU318      0.0402
     54  CG        12.4120   19.4220   23.5440 C.3   318  GLU318      0.1161
     55  CD        13.3460   20.5750   23.8210 C.2   318  GLU318      0.3649
     56  OE1       14.5300   20.3270   24.1590 O.co2 318  GLU318     -0.2457
     57  OE2       12.8890   21.7340   23.6820 O.co2 318  GLU318     -0.2457
     58  N         13.6700   15.5580   21.4260 N.am  319  TYR319     -0.1962
     59  CA        14.3060   14.7690   20.3710 C.3   319  TYR319      0.1771
     60  C         13.3230   13.7560   19.7760 C.2   319  TYR319      0.2619
     61  O         13.2490   13.6560   18.5500 O.2   319  TYR319     -0.2715
     62  CB        15.6180   14.0820   20.8180 C.3   319  TYR319      0.0574
     63  CG        16.1970   13.2390   19.6920 C.ar  319  TYR319     -0.0198
     64  CD1       16.8880   13.8350   18.6400 C.ar  319  TYR319     -0.0009
     65  CD2       15.9560   11.8780   19.6280 C.ar  319  TYR319     -0.0009
     66  CE1       17.3600   13.0910   17.5660 C.ar  319  TYR319      0.0417
     67  CE2       16.4110   11.1290   18.5530 C.ar  319  TYR319      0.0417
     68  CZ        17.1030   11.7320   17.5360 C.ar  319  TYR319      0.1957
     69  OH        17.5770   11.0060   16.4660 O.3   319  TYR319     -0.2866
     70  N         12.6000   13.0350   20.6260 N.am  320  LEU320     -0.1977
     71  CA        11.6380   12.0280   20.1820 C.3   320  LEU320      0.1596
     72  C         10.4380   12.7030   19.5580 C.2   320  LEU320      0.2287
     73  O          9.8860   12.1770   18.5990 O.2   320  LEU320     -0.2864
     74  CB        11.1720   11.1370   21.3200 C.3   320  LEU320      0.0297
     75  CG        12.2950   10.2540   21.8420 C.3   320  LEU320      0.0022
     76  CD1       11.7700    9.3870   22.9600 C.3   320  LEU320      0.0001
     77  CD2       12.9020    9.3690   20.6620 C.3   320  LEU320      0.0001
@<TRIPOS>BOND
     1     7     6    1
     2     7     1    1
     3     4     3    2
     4     6     5    1
     5     1     2    1
     6     5     2    1
     7     3     2    1
     8     3     8   am
     9    10     9    1
    10    10    11    2
    11     9     8    1
    12     9    12    1
    13    29    27   am
    14    28    27    2
    15    27    26    1
    16    12    14    1
    17    12    13    1
    18    26    23    1
    19    23    22    1
    20    23    24    1
    21    22    17   am
    22    15    16    1
    23    15    21    1
    24    17    16    1
    25    17    18    2
    26    16    19    1
    27    24    25    2
    28    21    20    1
    29    33    32    2
    30    69    68    1
    31    19    20    1
    32    32    31    1
    33    32    38   am
    34    30    31    1
    35    31    34    1
    36    37    35    1
    37    39    38    1
    38    39    40    1
    39    68    66   ar
    40    68    67   ar
    41    66    64   ar
    42    41    40    2
    43    35    34    1
    44    35    36    1
    45    61    60    2
    46    67    65   ar
    47    73    72    2
    48    64    63   ar
    49    72    71    1
    50    65    63   ar
    51    63    62    1
    52    60    59    1
    53    60    70   am
    54    52    51    2
    55    71    70    1
    56    71    74    1
    57    59    62    1
    58    59    58    1
    59    77    75    1
    60    47    48    1
    61    47    46    1
    62    48    42    1
    63    51    58   am
    64    51    50    1
    65    74    75    1
    66    46    43    1
    67    75    76    1
    68    50    53    1
    69    50    49    1
    70    42    43    1
    71    53    54    1
    72    43    44    1
    73    54    55    1
    74    57    55   ar
    75    55    56   ar
    76    44    45    2
