@<TRIPOS>MOLECULE
tmp/2aywA01.pdb
 103 100 0 0 0
SMALL
GASTEIGER

@<TRIPOS>ATOM
      1  N         18.2660   16.1020   40.6830 N.3    78  SER78      -0.1217
      2  CA        18.9500   17.0790   39.8310 C.3    78  SER78       0.1889
      3  C         20.2770   17.5570   40.4020 C.2    78  SER78       0.2288
      4  O         21.0160   18.2570   39.7170 O.2    78  SER78      -0.2866
      5  CB        18.0440   18.2630   39.5700 C.3    78  SER78       0.2089
      6  OG        17.8660   18.9490   40.7760 O.3    78  SER78      -0.2183
      7  N         22.3710   13.8280   39.9990 N.3    81  LEU81      -0.1245
      8  CA        22.1370   13.3880   38.6260 C.3    81  LEU81       0.1561
      9  C         21.7630   11.9070   38.5500 C.2    81  LEU81       0.2260
     10  O         21.6590   11.3510   37.4520 O.2    81  LEU81      -0.2867
     11  CB        23.2920   13.7380   37.6790 C.3    81  LEU81       0.0270
     12  CG        23.6970   15.2190   37.7770 C.3    81  LEU81       0.0019
     13  CD1       24.8700   15.4680   36.8380 C.3    81  LEU81       0.0001
     14  CD2       22.5520   16.1590   37.4830 C.3    81  LEU81       0.0001
     15  N         27.1170   20.2070   20.4090 N.3   123  ASN123     -0.1240
     16  CA        28.3280   20.9540   20.0580 C.3   123  ASN123      0.1653
     17  C         29.4060   19.9720   19.5690 C.2   123  ASN123      0.2266
     18  O         29.5830   18.8670   20.1350 O.2   123  ASN123     -0.2867
     19  CB        28.8120   21.6710   21.3140 C.3   123  ASN123      0.1155
     20  CG        29.9560   22.6420   21.1050 C.2   123  ASN123      0.2627
     21  OD1       30.5310   22.8080   20.0400 O.2   123  ASN123     -0.2716
     22  ND2       30.3360   23.2670   22.2150 N.am  123  ASN123     -0.0877
     23  N         32.7170   21.0760   19.1150 N.3   125  LYS125     -0.1231
     24  CA        34.0490   21.5500   19.5210 C.3   125  LYS125      0.1693
     25  C         34.2990   21.3810   21.0170 C.2   125  LYS125      0.2593
     26  O         33.3790   21.4820   21.8190 O.2   125  LYS125     -0.2718
     27  CB        34.2000   23.0010   19.1480 C.3   125  LYS125      0.0285
     28  CG        34.0930   23.2610   17.6630 C.3   125  LYS125      0.0035
     29  CD        34.5440   24.6980   17.3250 C.3   125  LYS125      0.0206
     30  CE        35.0110   24.8610   15.8790 C.3   125  LYS125      0.1093
     31  NZ        36.0030   25.9970   15.7280 N.3   125  LYS125     -0.1314
     32  N         35.5600   21.1270   21.3760 N.am  126  SER126     -0.1938
     33  CA        35.9680   20.9650   22.7920 C.3   126  SER126      0.2055
     34  C         36.2470   22.3030   23.4670 C.2   126  SER126      0.2644
     35  O         36.2180   22.4040   24.7060 O.2   126  SER126     -0.2714
     36  CB        37.2160   20.0770   22.9110 C.3   126  SER126      0.2130
     37  OG        38.3150   20.6230   22.2000 O.3   126  SER126     -0.2179
     38  N         36.5730   23.3050   22.6540 N.am  127  SER127     -0.1935
     39  CA        36.6630   24.6810   23.1040 C.3   127  SER127      0.2055
     40  C         35.8470   25.4770   22.0990 C.2   127  SER127      0.2644
     41  O         35.8960   25.2300   20.8970 O.2   127  SER127     -0.2714
     42  CB        38.1160   25.1630   23.1720 C.3   127  SER127      0.2130
     43  OG        38.6700   25.2680   21.8780 O.3   127  SER127     -0.2179
     44  N         35.0670   26.4100   22.5910 N.am  128  GLY128     -0.1939
     45  CA        34.1650   27.1360   21.7230 C.3   128  GLY128      0.2014
     46  C         32.9770   26.2940   21.3210 C.2   128  GLY128      0.2639
     47  O         32.7240   25.2060   21.8830 O.2   128  GLY128     -0.2714
     48  N         32.2220   26.8250   20.3730 N.am  129  THR129     -0.1950
     49  CA        30.9950   26.1860   19.9680 C.3   129  THR129      0.1897
     50  C         30.8540   26.1270   18.4650 C.2   129  THR129      0.2313
     51  O         31.2430   27.0420   17.7150 O.2   129  THR129     -0.2863
     52  CB        29.7790   26.9050   20.5350 C.3   129  THR129      0.1794
     53  OG1       29.7150   28.2420   20.0220 O.3   129  THR129     -0.2208
     54  CG2       29.8320   26.9500   22.0490 C.3   129  THR129      0.0378
     55  N         28.5480   15.9490   23.9490 N.3   173  CYS173     -0.1221
     56  CA        28.6520   17.3110   24.4540 C.3   173  CYS173      0.1808
     57  C         27.2520   17.8940   24.6350 C.2   173  CYS173      0.2601
     58  O         26.2280   17.2040   24.4460 O.2   173  CYS173     -0.2717
     59  CB        29.5590   18.1480   23.5390 C.3   173  CYS173      0.0970
     60  SG        30.1730   19.7190   24.1720 S.3   173  CYS173     -0.0800
     61  N         27.2130   19.1590   25.0450 N.am  174  GLN174     -0.1979
     62  CA        25.9440   19.8470   25.2540 C.3   174  GLN174      0.1601
     63  C         25.1390   19.7840   23.9770 C.2   174  GLN174      0.2287
     64  O         25.6510   19.9750   22.8760 O.2   174  GLN174     -0.2864
     65  CB        26.2210   21.3010   25.6420 C.3   174  GLN174      0.0394
     66  CG        26.9260   21.3600   26.9780 C.3   174  GLN174      0.0908
     67  CD        27.0070   22.7210   27.4160 C.2   174  GLN174      0.2608
     68  OE1       27.5920   23.5710   26.7400 O.2   174  GLN174     -0.2717
     69  NE2       26.4000   22.9740   28.5550 N.am  174  GLN174     -0.0878
     70  N         25.8770   13.4850   31.4650 N.3   193  TRP193     -0.1227
     71  CA        26.7250   14.5810   31.9410 C.3   193  TRP193      0.1737
     72  C         28.1820   14.2790   31.6590 C.2   193  TRP193      0.2596
     73  O         28.5270   13.2970   30.9820 O.2   193  TRP193     -0.2718
     74  CB        26.4350   14.8770   33.4270 C.3   193  TRP193      0.0564
     75  CG        26.7460   13.7920   34.4030 C.ar  193  TRP193      0.0003
     76  CD1       25.9280   12.7480   34.7470 C.ar  193  TRP193      0.0946
     77  CD2       27.8830   13.6930   35.2680 C.ar  193  TRP193      0.0152
     78  NE1       26.4790   12.0080   35.7400 N.ar  193  TRP193     -0.2442
     79  CE2       27.6900   12.5590   36.0780 C.ar  193  TRP193      0.0810
     80  CE3       29.0640   14.4440   35.4280 C.ar  193  TRP193      0.0012
     81  CZ2       28.6270   12.1470   37.0290 C.ar  193  TRP193      0.0191
     82  CZ3       29.9910   14.0340   36.3780 C.ar  193  TRP193      0.0001
     83  CH2       29.7680   12.8960   37.1530 C.ar  193  TRP193      0.0015
     84  N         29.0360   15.1650   32.1430 N.am  194  GLY194     -0.1942
     85  CA        30.4860   15.0670   32.0030 C.3   194  GLY194      0.2014
     86  C         31.0500   16.3480   32.5360 C.2   194  GLY194      0.2640
     87  O         30.3450   17.1490   33.1350 O.2   194  GLY194     -0.2714
     88  N         32.3260   16.5750   32.3120 N.am  195  SER195     -0.1935
     89  CA        32.9930   17.8100   32.7250 C.3   195  SER195      0.2055
     90  C         33.5230   18.4600   31.4790 C.2   195  SER195      0.2644
     91  O         34.4160   17.9020   30.8160 O.2   195  SER195     -0.2714
     92  CB        34.1210   17.4730   33.6830 C.3   195  SER195      0.2130
     93  OG        34.8490   18.6230   34.0450 O.3   195  SER195     -0.2179
     94  N         32.9620   19.6070   31.1170 N.am  196  GLY196     -0.1939
     95  CA        33.2390   20.1850   29.8240 C.3   196  GLY196      0.2014
     96  C         32.8870   19.1630   28.7370 C.2   196  GLY196      0.2639
     97  O         31.9470   18.3870   28.8780 O.2   196  GLY196     -0.2714
     98  N         33.6500   19.1610   27.6500 N.am  197  CYS197     -0.1967
     99  CA        33.4860   18.1780   26.6020 C.3   197  CYS197      0.1712
    100  C         34.8510   17.8060   26.0450 C.2   197  CYS197      0.2296
    101  O         35.6670   18.6970   25.7330 O.2   197  CYS197     -0.2864
    102  CB        32.6320   18.7020   25.4520 C.3   197  CYS197      0.0983
    103  SG        31.0040   19.2130   25.9740 S.3   197  CYS197     -0.0798
@<TRIPOS>BOND
     1    31    30    1
     2    30    29    1
     3    29    28    1
     4    28    27    1
     5    51    50    2
     6    50    49    1
     7    23    24    1
     8    27    24    1
     9    24    25    1
    10    17    16    1
    11    17    18    2
    12    49    48    1
    13    49    52    1
    14    53    52    1
    15    21    20    2
    16    16    15    1
    17    16    19    1
    18    48    46   am
    19    52    54    1
    20    41    40    2
    21    25    32   am
    22    25    26    2
    23    20    19    1
    24    20    22   am
    25    46    45    1
    26    46    47    2
    27    32    33    1
    28    45    44    1
    29    43    42    1
    30    40    44   am
    31    40    39    1
    32    37    36    1
    33    38    39    1
    34    38    34   am
    35    33    36    1
    36    33    34    1
    37    64    63    2
    38    39    42    1
    39    34    35    2
    40    59    60    1
    41    59    56    1
    42    55    56    1
    43    63    62    1
    44    60   103    1
    45    58    57    2
    46    56    57    1
    47    57    61   am
    48    61    62    1
    49    62    65    1
    50   102   103    1
    51   102    99    1
    52    65    66    1
    53   101   100    2
    54   100    99    1
    55    99    98    1
    56    68    67    2
    57    66    67    1
    58    67    69   am
    59    98    96   am
    60    96    97    2
    61    96    95    1
    62    95    94    1
    63    91    90    2
    64    73    72    2
    65    94    90   am
    66    70    71    1
    67    90    89    1
    68    72    71    1
    69    72    84   am
    70    71    74    1
    71    85    84    1
    72    85    86    1
    73    88    86   am
    74    88    89    1
    75    86    87    2
    76    89    92    1
    77    74    75    1
    78    92    93    1
    79    75    76   ar
    80    75    77   ar
    81    76    78   ar
    82    77    80   ar
    83    77    79   ar
    84    80    82   ar
    85    78    79   ar
    86    79    81   ar
    87    82    83   ar
    88    13    12    1
    89    81    83   ar
    90    10     9    2
    91    14    12    1
    92    11    12    1
    93    11     8    1
    94     9     8    1
    95     8     7    1
    96     5     2    1
    97     5     6    1
    98     4     3    2
    99     2     3    1
   100     2     1    1
