@<TRIPOS>MOLECULE
tmp/2aywA00.pdb
 195 194 0 0 0
SMALL
GASTEIGER

@<TRIPOS>ATOM
      1  N         13.9460   25.1980   18.4250 N.3    22  TYR22      -0.1227
      2  CA        15.3770   24.9610   18.2440 C.3    22  TYR22       0.1736
      3  C         15.6100   23.5760   18.8440 C.2    22  TYR22       0.2595
      4  O         14.8710   23.1170   19.7200 O.2    22  TYR22      -0.2718
      5  CB        16.2570   25.9960   18.9440 C.3    22  TYR22       0.0548
      6  CG        16.0400   26.0670   20.4090 C.ar   22  TYR22      -0.0200
      7  CD1       16.8560   25.3770   21.2930 C.ar   22  TYR22      -0.0009
      8  CD2       15.0070   26.8420   20.9160 C.ar   22  TYR22      -0.0009
      9  CE1       16.6190   25.4470   22.6540 C.ar   22  TYR22       0.0417
     10  CE2       14.7590   26.9330   22.2550 C.ar   22  TYR22       0.0417
     11  CZ        15.5550   26.2240   23.1310 C.ar   22  TYR22       0.1957
     12  OH        15.3320   26.3080   24.4760 O.3    22  TYR22      -0.2866
     13  N         16.6600   22.9180   18.3860 N.am   23  HIS23      -0.1961
     14  CA        17.0790   21.6330   18.9390 C.3    23  HIS23       0.1787
     15  C         17.7010   21.8430   20.3230 C.2    23  HIS23       0.2620
     16  O         18.6350   22.6570   20.4700 O.2    23  HIS23      -0.2715
     17  CB        18.1160   20.9850   18.0140 C.3    23  HIS23       0.0785
     18  CG        18.7930   19.8310   18.6450 C.ar   23  HIS23       0.0821
     19  ND1       18.2670   18.5530   18.6340 N.ar   23  HIS23      -0.2267
     20  CD2       19.9080   19.8040   19.4070 C.ar   23  HIS23       0.1154
     21  CE1       19.0740   17.7850   19.3450 C.ar   23  HIS23       0.1986
     22  NE2       20.0550   18.5170   19.8460 N.ar   23  HIS23      -0.2212
     23  N         17.2390   21.1040   21.3290 N.am   24  PHE24      -0.1960
     24  CA        17.8210   21.2530   22.6690 C.3    24  PHE24       0.1771
     25  C         18.2960   19.9610   23.3100 C.2    24  PHE24       0.2619
     26  O         19.0720   20.0050   24.2680 O.2    24  PHE24      -0.2715
     27  CB        16.8700   22.0080   23.6260 C.3    24  PHE24       0.0574
     28  CG        15.6370   21.2290   24.0280 C.ar   24  PHE24      -0.0200
     29  CD1       14.4710   21.3020   23.2870 C.ar   24  PHE24      -0.0042
     30  CD2       15.6770   20.3890   25.1520 C.ar   24  PHE24      -0.0042
     31  CE1       13.3860   20.5460   23.6400 C.ar   24  PHE24      -0.0003
     32  CE2       14.5700   19.6290   25.5030 C.ar   24  PHE24      -0.0003
     33  CZ        13.4330   19.7020   24.7640 C.ar   24  PHE24      -0.0000
     34  N         17.8410   18.8060   22.8360 N.am   25  CYS25      -0.1968
     35  CA        18.2540   17.5290   23.4310 C.3    25  CYS25       0.1712
     36  C         17.9540   16.4580   22.3830 C.2    25  CYS25       0.2296
     37  O         17.1330   16.6640   21.4920 O.2    25  CYS25      -0.2864
     38  CB        17.4960   17.1820   24.7390 C.3    25  CYS25       0.0983
     39  SG        18.1980   17.8920   26.2440 S.3    25  CYS25      -0.0798
     40  N         17.0150   15.4720   32.7550 N.3    40  HIS40      -0.1241
     41  CA        17.4470   16.8580   32.8260 C.3    40  HIS40       0.1621
     42  C         17.0510   17.6530   31.5820 C.2    40  HIS40       0.2264
     43  O         17.1920   18.8940   31.5870 O.2    40  HIS40      -0.2867
     44  CB        18.9510   16.9510   33.1340 C.3    40  HIS40       0.0745
     45  CG        19.8440   16.7980   31.9390 C.ar   40  HIS40       0.0817
     46  ND1       20.5790   15.6590   31.6720 N.ar   40  HIS40      -0.2268
     47  CD2       20.1610   17.6960   30.9780 C.ar   40  HIS40       0.1154
     48  CE1       21.3350   15.8830   30.6020 C.ar   40  HIS40       0.1986
     49  NE2       21.0800   17.1030   30.1440 N.ar   40  HIS40      -0.2212
     50  N         22.3710   13.8280   39.9990 N.3    81  LEU81      -0.1245
     51  CA        22.1370   13.3880   38.6260 C.3    81  LEU81       0.1561
     52  C         21.7630   11.9070   38.5500 C.2    81  LEU81       0.2260
     53  O         21.6590   11.3510   37.4520 O.2    81  LEU81      -0.2867
     54  CB        23.2920   13.7380   37.6790 C.3    81  LEU81       0.0270
     55  CG        23.6970   15.2190   37.7770 C.3    81  LEU81       0.0019
     56  CD1       24.8700   15.4680   36.8380 C.3    81  LEU81       0.0001
     57  CD2       22.5520   16.1590   37.4830 C.3    81  LEU81       0.0001
     58  N         18.8920    9.7970   35.6940 N.3    84  ASP84      -0.1239
     59  CA        18.6890   10.8280   34.6570 C.3    84  ASP84       0.1674
     60  C         18.0500   10.1960   33.4180 C.2    84  ASP84       0.2266
     61  O         18.6990    9.9870   32.3700 O.2    84  ASP84      -0.2867
     62  CB        19.9970   11.5360   34.3390 C.3    84  ASP84       0.1410
     63  CG        19.8050   12.7710   33.4800 C.2    84  ASP84       0.3668
     64  OD1       18.6300   13.2030   33.2950 O.co2  84  ASP84      -0.2456
     65  OD2       20.8340   13.3170   32.9840 O.co2  84  ASP84      -0.2456
     66  N         27.6000   24.1420   16.1790 N.3   131  TYR131     -0.1241
     67  CA        26.4550   23.2390   16.1750 C.3   131  TYR131      0.1605
     68  C         26.2000   22.7680   14.7540 C.2   131  TYR131      0.2264
     69  O         26.0720   23.5870   13.8390 O.2   131  TYR131     -0.2867
     70  CB        25.2160   23.9170   16.7700 C.3   131  TYR131      0.0534
     71  CG        25.4830   24.2970   18.1820 C.ar  131  TYR131     -0.0201
     72  CD1       25.7980   25.6180   18.5440 C.ar  131  TYR131     -0.0009
     73  CD2       25.5160   23.3130   19.1680 C.ar  131  TYR131     -0.0009
     74  CE1       26.1060   25.9300   19.8460 C.ar  131  TYR131      0.0417
     75  CE2       25.8400   23.6230   20.4670 C.ar  131  TYR131      0.0417
     76  CZ        26.1170   24.9380   20.7990 C.ar  131  TYR131      0.1957
     77  OH        26.4380   25.2690   22.0970 O.3   131  TYR131     -0.2866
     78  N         34.0030   12.7590   22.3740 N.3   171  ASP171     -0.1225
     79  CA        33.0290   12.7420   23.4660 C.3   171  ASP171      0.1805
     80  C         31.6890   13.1970   22.9290 C.2   171  ASP171      0.2598
     81  O         31.6130   13.7960   21.8530 O.2   171  ASP171     -0.2718
     82  CB        33.5200   13.7060   24.5660 C.3   171  ASP171      0.1424
     83  CG        32.8260   13.6140   25.9360 C.2   171  ASP171      0.3668
     84  OD1       31.9770   12.7130   26.1830 O.co2 171  ASP171     -0.2456
     85  OD2       33.1850   14.4910   26.7810 O.co2 171  ASP171     -0.2456
     86  N         30.6230   12.9490   23.6840 N.am  172  SER172     -0.1938
     87  CA        29.3990   13.7150   23.4910 C.3   172  SER172      0.2055
     88  C         29.5540   15.0950   24.1490 C.2   172  SER172      0.2643
     89  O         30.5730   15.3800   24.8080 O.2   172  SER172     -0.2714
     90  CB        28.1930   12.9340   23.9930 C.3   172  SER172      0.2130
     91  OG        28.3010   12.6300   25.3540 O.3   172  SER172     -0.2179
     92  N         28.5480   15.9490   23.9490 N.am  173  CYS173     -0.1953
     93  CA        28.6520   17.3110   24.4540 C.3   173  CYS173      0.1843
     94  C         27.2520   17.8940   24.6350 C.2   173  CYS173      0.2625
     95  O         26.2280   17.2040   24.4460 O.2   173  CYS173     -0.2714
     96  CB        29.5590   18.1480   23.5390 C.3   173  CYS173      0.0997
     97  SG        30.1730   19.7190   24.1720 S.3   173  CYS173     -0.0797
     98  N         27.2130   19.1590   25.0450 N.am  174  GLN174     -0.1963
     99  CA        25.9440   19.8470   25.2540 C.3   174  GLN174      0.1733
    100  C         25.1390   19.7840   23.9770 C.2   174  GLN174      0.2616
    101  O         25.6510   19.9750   22.8760 O.2   174  GLN174     -0.2715
    102  CB        26.2210   21.3010   25.6420 C.3   174  GLN174      0.0408
    103  CG        26.9260   21.3600   26.9780 C.3   174  GLN174      0.0908
    104  CD        27.0070   22.7210   27.4160 C.2   174  GLN174      0.2608
    105  OE1       27.5920   23.5710   26.7400 O.2   174  GLN174     -0.2717
    106  NE2       26.4000   22.9740   28.5550 N.am  174  GLN174     -0.0878
    107  N         23.8310   19.5330   24.1360 N.am  175  GLY175     -0.1955
    108  CA        22.9250   19.3540   23.0000 C.3   175  GLY175      0.1869
    109  C         22.7970   17.8980   22.5730 C.2   175  GLY175      0.2309
    110  O         21.8580   17.5500   21.8410 O.2   175  GLY175     -0.2863
    111  N         22.6520   15.6200   24.9920 N.3   177  SER177     -0.1217
    112  CA        21.9710   15.0850   26.1460 C.3   177  SER177      0.1889
    113  C         20.6210   14.4820   25.7810 C.2   177  SER177      0.2288
    114  O         19.8780   15.0290   24.9850 O.2   177  SER177     -0.2866
    115  CB        21.7270   16.1680   27.1810 C.3   177  SER177      0.2089
    116  OG        22.9520   16.5850   27.7710 O.3   177  SER177     -0.2183
    117  N         22.8390    9.9610   26.9930 N.3   191  VAL191     -0.1231
    118  CA        23.7970   11.0390   27.2210 C.3   191  VAL191      0.1692
    119  C         23.3160   11.8740   28.4200 C.2   191  VAL191      0.2593
    120  O         22.2010   12.4390   28.3790 O.2   191  VAL191     -0.2718
    121  CB        23.9200   11.9350   25.9710 C.3   191  VAL191      0.0266
    122  CG1       24.9160   13.0770   26.2290 C.3   191  VAL191      0.0020
    123  CG2       24.3350   11.1390   24.7230 C.3   191  VAL191      0.0020
    124  N         24.1330   11.9530   29.4680 N.am  192  SER192     -0.1938
    125  CA        23.7170   12.5590   30.7230 C.3   192  SER192      0.2055
    126  C         24.6090   13.7480   31.1150 C.2   192  SER192      0.2643
    127  O         24.1570   14.9010   31.0700 O.2   192  SER192     -0.2714
    128  CB        23.6010   11.4850   31.8160 C.3   192  SER192      0.2130
    129  OG        23.2220   12.0500   33.0710 O.3   192  SER192     -0.2179
    130  N         25.8770   13.4850   31.4650 N.am  193  TRP193     -0.1959
    131  CA        26.7250   14.5810   31.9410 C.3   193  TRP193      0.1771
    132  C         28.1820   14.2790   31.6590 C.2   193  TRP193      0.2620
    133  O         28.5270   13.2970   30.9820 O.2   193  TRP193     -0.2715
    134  CB        26.4350   14.8770   33.4270 C.3   193  TRP193      0.0590
    135  CG        26.7460   13.7920   34.4030 C.ar  193  TRP193      0.0006
    136  CD1       25.9280   12.7480   34.7470 C.ar  193  TRP193      0.0946
    137  CD2       27.8830   13.6930   35.2680 C.ar  193  TRP193      0.0152
    138  NE1       26.4790   12.0080   35.7400 N.ar  193  TRP193     -0.2442
    139  CE2       27.6900   12.5590   36.0780 C.ar  193  TRP193      0.0810
    140  CE3       29.0640   14.4440   35.4280 C.ar  193  TRP193      0.0012
    141  CZ2       28.6270   12.1470   37.0290 C.ar  193  TRP193      0.0191
    142  CZ3       29.9910   14.0340   36.3780 C.ar  193  TRP193      0.0001
    143  CH2       29.7680   12.8960   37.1530 C.ar  193  TRP193      0.0015
    144  N         29.0360   15.1650   32.1430 N.am  194  GLY194     -0.1940
    145  CA        30.4860   15.0670   32.0030 C.3   194  GLY194      0.2014
    146  C         31.0500   16.3480   32.5360 C.2   194  GLY194      0.2640
    147  O         30.3450   17.1490   33.1350 O.2   194  GLY194     -0.2714
    148  N         32.3260   16.5750   32.3120 N.am  195  SER195     -0.1935
    149  CA        32.9930   17.8100   32.7250 C.3   195  SER195      0.2055
    150  C         33.5230   18.4600   31.4790 C.2   195  SER195      0.2644
    151  O         34.4160   17.9020   30.8160 O.2   195  SER195     -0.2714
    152  CB        34.1210   17.4730   33.6830 C.3   195  SER195      0.2130
    153  OG        34.8490   18.6230   34.0450 O.3   195  SER195     -0.2179
    154  N         32.9620   19.6070   31.1170 N.am  196  GLY196     -0.1939
    155  CA        33.2390   20.1850   29.8240 C.3   196  GLY196      0.2014
    156  C         32.8870   19.1630   28.7370 C.2   196  GLY196      0.2639
    157  O         31.9470   18.3870   28.8780 O.2   196  GLY196     -0.2714
    158  N         33.6500   19.1610   27.6500 N.am  197  CYS197     -0.1967
    159  CA        33.4860   18.1780   26.6020 C.3   197  CYS197      0.1712
    160  C         34.8510   17.8060   26.0450 C.2   197  CYS197      0.2296
    161  O         35.6670   18.6970   25.7330 O.2   197  CYS197     -0.2864
    162  CB        32.6320   18.7020   25.4520 C.3   197  CYS197      0.0983
    163  SG        31.0040   19.2130   25.9740 S.3   197  CYS197     -0.0798
    164  N         38.3460   13.0310   31.5240 N.3   202  LYS202     -0.1245
    165  CA        36.9940   13.4420   31.9040 C.3   202  LYS202      0.1561
    166  C         36.0320   12.8550   30.8740 C.2   202  LYS202      0.2260
    167  O         35.5230   13.5470   29.9980 O.2   202  LYS202     -0.2867
    168  CB        36.8870   14.9690   31.9860 C.3   202  LYS202      0.0271
    169  CG        37.6820   15.5790   33.1130 C.3   202  LYS202      0.0035
    170  CD        37.6870   17.0960   32.9690 C.3   202  LYS202      0.0206
    171  CE        38.4490   17.8290   34.0640 C.3   202  LYS202      0.1093
    172  NZ        39.1480   19.0180   33.4790 N.3   202  LYS202     -0.1314
    173  N         32.6840   10.9600   29.0940 N.3   204  GLY204     -0.1210
    174  CA        31.2500   11.1610   29.2520 C.3   204  GLY204      0.1956
    175  C         30.6480   10.2110   30.2630 C.2   204  GLY204      0.2612
    176  O         31.1240    9.0710   30.4220 O.2   204  GLY204     -0.2717
    177  N         29.5760   10.6790   30.9180 N.am  205  VAL205     -0.1965
    178  CA        28.8260    9.8940   31.8560 C.3   205  VAL205      0.1727
    179  C         27.4050    9.7260   31.3380 C.2   205  VAL205      0.2616
    180  O         26.7710   10.6940   30.8440 O.2   205  VAL205     -0.2715
    181  CB        28.8120   10.4980   33.2910 C.3   205  VAL205      0.0290
    182  CG1       28.2350    9.4930   34.2460 C.3   205  VAL205      0.0023
    183  CG2       30.2630   10.8560   33.7210 C.3   205  VAL205      0.0023
    184  N         26.8980    8.4960   31.4280 N.am  206  TYR206     -0.1974
    185  CA        25.6880    8.0720   30.7460 C.3   206  TYR206      0.1639
    186  C         24.7750    7.3370   31.7170 C.2   206  TYR206      0.2290
    187  O         25.2340    6.5820   32.5790 O.2   206  TYR206     -0.2864
    188  CB        26.0930    7.1240   29.5880 C.3   206  TYR206      0.0560
    189  CG        26.9480    7.8420   28.5810 C.ar  206  TYR206     -0.0198
    190  CD1       26.3660    8.5870   27.5740 C.ar  206  TYR206     -0.0009
    191  CD2       28.3430    7.8450   28.6700 C.ar  206  TYR206     -0.0009
    192  CE1       27.1130    9.3110   26.6850 C.ar  206  TYR206      0.0417
    193  CE2       29.1180    8.5700   27.7760 C.ar  206  TYR206      0.0417
    194  CZ        28.4900    9.3150   26.7820 C.ar  206  TYR206      0.1957
    195  OH        29.1960   10.0420   25.8510 O.3   206  TYR206     -0.2866
@<TRIPOS>BOND
     1    69    68    2
     2    68    67    1
     3    67    66    1
     4    67    70    1
     5    70    71    1
     6    17    18    1
     7    17    14    1
     8    71    72   ar
     9    71    73   ar
    10     2     1    1
    11     2     3    1
    12     2     5    1
    13    13     3   am
    14    13    14    1
    15    72    74   ar
    16    19    18   ar
    17    19    21   ar
    18    18    20   ar
    19     3     4    2
    20    14    15    1
    21     5     6    1
    22    73    75   ar
    23    21    22   ar
    24    20    22   ar
    25    74    76   ar
    26    15    16    2
    27    15    23   am
    28     6     8   ar
    29     6     7   ar
    30    75    76   ar
    31    76    77    1
    32     8    10   ar
    33     7     9   ar
    34    23    24    1
    35    37    36    2
    36   110   109    2
    37    81    80    2
    38    10    11   ar
    39    78    79    1
    40    36    35    1
    41   109   108    1
    42     9    11   ar
    43    24    25    1
    44    24    27    1
    45    34    25   am
    46    34    35    1
    47   101   100    2
    48    80    79    1
    49    80    86   am
    50   108   107    1
    51    11    12    1
    52    29    31   ar
    53    29    28   ar
    54    25    26    2
    55    35    38    1
    56    79    82    1
    57    87    86    1
    58    87    90    1
    59    87    88    1
    60    96    97    1
    61    96    93    1
    62    27    28    1
    63    31    33   ar
    64    92    88   am
    65    92    93    1
    66   100   107   am
    67   100    99    1
    68    90    91    1
    69    28    30   ar
    70    88    89    2
    71    97   163    1
    72    95    94    2
    73    93    94    1
    74    82    83    1
    75    94    98   am
    76   123   121    1
    77    38    39    1
    78    33    32   ar
    79   114   113    2
    80   111   112    1
    81    98    99    1
    82    30    32   ar
    83    99   102    1
    84   162   163    1
    85   162   159    1
    86   102   103    1
    87   161   160    2
    88   113   112    1
    89   195   194    1
    90    83    84   ar
    91    83    85   ar
    92   121   122    1
    93   121   118    1
    94   160   159    1
    95   112   115    1
    96   159   158    1
    97   192   194   ar
    98   192   190   ar
    99   105   104    2
   100   194   193   ar
   101   103   104    1
   102   117   118    1
   103   115   116    1
   104   118   119    1
   105   104   106   am
   106   190   189   ar
   107   158   156   am
   108   193   191   ar
   109   120   119    2
   110   119   124   am
   111   189   191   ar
   112   189   188    1
   113   156   157    2
   114   156   155    1
   115   173   174    1
   116   174   175    1
   117   124   125    1
   118   188   185    1
   119   155   154    1
   120   167   166    2
   121    49    48   ar
   122    49    47   ar
   123   175   176    2
   124   175   177   am
   125    48    46   ar
   126   125   126    1
   127   125   128    1
   128   185   184    1
   129   185   186    1
   130   151   150    2
   131   180   179    2
   132   166   165    1
   133   177   178    1
   134    47    45   ar
   135   133   132    2
   136   127   126    2
   137   126   130   am
   138   154   150   am
   139   179   184   am
   140   179   178    1
   141   130   131    1
   142   150   149    1
   143   164   165    1
   144    42    43    2
   145    42    41    1
   146   132   131    1
   147   132   144   am
   148    46    45   ar
   149   186   187    2
   150   128   129    1
   151   178   181    1
   152   165   168    1
   153    45    44    1
   154   131   134    1
   155   168   169    1
   156   145   144    1
   157   145   146    1
   158   148   146   am
   159   148   149    1
   160    61    60    2
   161   146   147    2
   162   149   152    1
   163    40    41    1
   164    41    44    1
   165   170   169    1
   166   170   171    1
   167    65    63   ar
   168   181   183    1
   169   181   182    1
   170    64    63   ar
   171    60    59    1
   172   134   135    1
   173   172   171    1
   174    63    62    1
   175   152   153    1
   176    62    59    1
   177   135   136   ar
   178   135   137   ar
   179    59    58    1
   180   136   138   ar
   181   137   140   ar
   182   137   139   ar
   183   140   142   ar
   184   138   139   ar
   185   139   141   ar
   186   142   143   ar
   187    56    55    1
   188   141   143   ar
   189    53    52    2
   190    57    55    1
   191    54    55    1
   192    54    51    1
   193    52    51    1
   194    51    50    1
