@<TRIPOS>MOLECULE
tmp/2az3C00.pdb
 121 113 0 0 0
SMALL
GASTEIGER

@<TRIPOS>ATOM
      1  N         -8.0040  -18.0860    8.3840 N.3    10  LYS10      -0.1245
      2  CA        -9.2430  -18.7590    8.6190 C.3    10  LYS10       0.1561
      3  C        -10.2240  -18.5140    7.5270 C.2    10  LYS10       0.2260
      4  O         -9.9470  -17.8070    6.5880 O.2    10  LYS10      -0.2867
      5  CB        -9.8270  -18.2710    9.9430 C.3    10  LYS10       0.0271
      6  CG        -8.9670  -18.5090   11.1680 C.3    10  LYS10       0.0035
      7  CD        -9.7590  -18.2690   12.4140 C.3    10  LYS10       0.0206
      8  CE        -8.9160  -18.3960   13.6520 C.3    10  LYS10       0.1093
      9  NZ        -9.7540  -18.4760   14.9170 N.3    10  LYS10      -0.1314
     10  N         -8.8760  -28.0660   18.0910 N.3    50  TYR50      -0.1241
     11  CA        -9.5070  -27.2290   19.0660 C.3    50  TYR50       0.1605
     12  C         -9.8160  -27.9480   20.3830 C.2    50  TYR50       0.2264
     13  O        -10.3240  -27.3090   21.2870 O.2    50  TYR50      -0.2867
     14  CB       -10.8140  -26.6530   18.4640 C.3    50  TYR50       0.0534
     15  CG       -10.6120  -25.4220   17.5510 C.ar   50  TYR50      -0.0201
     16  CD1       -9.8570  -24.3320   17.9930 C.ar   50  TYR50      -0.0009
     17  CD2      -11.1680  -25.3540   16.2660 C.ar   50  TYR50      -0.0009
     18  CE1       -9.6660  -23.1680   17.2050 C.ar   50  TYR50       0.0417
     19  CE2      -10.9810  -24.1800   15.4500 C.ar   50  TYR50       0.0417
     20  CZ       -10.2280  -23.1100   15.9330 C.ar   50  TYR50       0.1957
     21  OH       -10.0180  -21.9840   15.1930 O.3    50  TYR50      -0.2866
     22  N        -10.8160  -27.1000   23.7970 N.3    53  HIS53      -0.1241
     23  CA       -12.0780  -26.3880   23.8830 C.3    53  HIS53       0.1621
     24  C        -13.3160  -27.2270   23.8280 C.2    53  HIS53       0.2264
     25  O        -14.4170  -26.6900   23.8000 O.2    53  HIS53      -0.2867
     26  CB       -12.1740  -25.4210   22.7110 C.3    53  HIS53       0.0745
     27  CG       -11.1470  -24.3530   22.7580 C.ar   53  HIS53       0.0817
     28  ND1      -10.7360  -23.7880   23.9440 N.ar   53  HIS53      -0.2268
     29  CD2      -10.3930  -23.7910   21.7910 C.ar   53  HIS53       0.1154
     30  CE1       -9.7980  -22.8950   23.6990 C.ar   53  HIS53       0.1986
     31  NE2       -9.5760  -22.8700   22.4010 N.ar   53  HIS53      -0.2212
     32  N        -18.6520  -22.3250   23.1640 N.3    58  PHE58      -0.1241
     33  CA       -18.5200  -21.7310   21.8390 C.3    58  PHE58       0.1605
     34  C        -17.9720  -22.7790   20.8980 C.2    58  PHE58       0.2264
     35  O        -17.9190  -22.5240   19.7060 O.2    58  PHE58      -0.2867
     36  CB       -17.6430  -20.4950   21.8580 C.3    58  PHE58       0.0534
     37  CG       -16.3600  -20.6910   22.5390 C.ar   58  PHE58      -0.0203
     38  CD1      -15.3110  -21.3130   21.8910 C.ar   58  PHE58      -0.0042
     39  CD2      -16.1880  -20.2980   23.8700 C.ar   58  PHE58      -0.0042
     40  CE1      -14.1250  -21.5200   22.5260 C.ar   58  PHE58      -0.0003
     41  CE2      -14.9940  -20.5300   24.5180 C.ar   58  PHE58      -0.0003
     42  CZ       -13.9690  -21.1400   23.8420 C.ar   58  PHE58      -0.0000
     43  N        -17.6140  -22.9280   16.7030 N.3    62  LEU62      -0.1245
     44  CA       -16.2680  -22.8130   16.2250 C.3    62  LEU62       0.1561
     45  C        -15.8420  -23.8710   15.2330 C.2    62  LEU62       0.2260
     46  O        -15.0830  -23.5600   14.2690 O.2    62  LEU62      -0.2867
     47  CB       -15.3600  -22.9650   17.3920 C.3    62  LEU62       0.0270
     48  CG       -14.1560  -22.0650   17.3730 C.3    62  LEU62       0.0019
     49  CD1      -14.2560  -21.2580   18.6260 C.3    62  LEU62       0.0001
     50  CD2      -12.9850  -22.9240   17.3970 C.3    62  LEU62       0.0001
     51  N          2.3140  -13.8810   17.0690 N.3    86  ARG86      -0.1245
     52  CA         1.2470  -13.6180   18.0200 C.3    86  ARG86       0.1563
     53  C          1.1100  -12.1400   18.2710 C.2    86  ARG86       0.2260
     54  O          0.0250  -11.6430   18.4420 O.2    86  ARG86      -0.2867
     55  CB         1.5140  -14.3100   19.3730 C.3    86  ARG86       0.0307
     56  CG         0.8840  -15.6540   19.4150 C.3    86  ARG86       0.0489
     57  CD        -0.2310  -15.6320   20.3500 C.3    86  ARG86       0.2205
     58  NE        -1.2750  -16.5580   20.0240 N.pl3  86  ARG86      -0.0865
     59  CZ        -2.2670  -16.8110   20.8620 C.cat  86  ARG86       0.5346
     60  NH1       -2.3250  -16.2140   22.0380 N.pl3  86  ARG86       0.1354
     61  NH2       -3.2200  -17.6620   20.5310 N.pl3  86  ARG86       0.1354
     62  N         -6.9070  -11.8060   20.5340 N.3    92  THR92      -0.1218
     63  CA        -7.7590  -12.7880   19.9530 C.3    92  THR92       0.1862
     64  C         -9.0990  -12.1760   19.5760 C.2    92  THR92       0.2287
     65  O         -9.7440  -12.5470   18.5810 O.2    92  THR92      -0.2866
     66  CB        -8.0390  -13.8720   21.0160 C.3    92  THR92       0.1770
     67  OG1       -6.8330  -14.2410   21.7140 O.3    92  THR92      -0.2211
     68  CG2       -8.6500  -15.1300   20.3710 C.3    92  THR92       0.0375
     69  N         -5.4860   -8.2170   13.3240 N.3   103  ARG103     -0.1245
     70  CA        -6.8540   -8.2310   13.8010 C.3   103  ARG103      0.1563
     71  C         -7.3880   -6.8340   13.9830 C.2   103  ARG103      0.2260
     72  O         -8.5350   -6.5600   13.6770 O.2   103  ARG103     -0.2867
     73  CB        -6.9680   -9.0580   15.0890 C.3   103  ARG103      0.0307
     74  CG        -6.6180  -10.5220   14.8490 C.3   103  ARG103      0.0489
     75  CD        -7.4910  -11.3910   15.5270 C.3   103  ARG103      0.2205
     76  NE        -7.0240  -12.7820   15.6070 N.pl3 103  ARG103     -0.0865
     77  CZ        -6.1310  -13.2670   16.4640 C.cat 103  ARG103      0.5346
     78  NH1       -5.5230  -12.4970   17.3410 N.pl3 103  ARG103      0.1354
     79  NH2       -5.8670  -14.5470   16.4480 N.pl3 103  ARG103      0.1354
     80  N        -14.8890  -11.8100   17.5160 N.3   110  LEU110     -0.1231
     81  CA       -14.1520  -12.8140   18.2270 C.3   110  LEU110      0.1693
     82  C        -14.1660  -14.1670   17.4540 C.2   110  LEU110      0.2592
     83  O        -13.1080  -14.8050   17.2250 O.2   110  LEU110     -0.2718
     84  CB       -14.7990  -12.9550   19.6020 C.3   110  LEU110      0.0284
     85  CG       -14.1180  -13.9220   20.5670 C.3   110  LEU110      0.0019
     86  CD1      -12.5920  -14.0500   20.4760 C.3   110  LEU110      0.0001
     87  CD2      -14.5120  -13.5650   21.9440 C.3   110  LEU110      0.0001
     88  N        -15.3400  -14.6000   17.0350 N.am  111  GLY111     -0.1957
     89  CA       -15.4530  -15.8140   16.2250 C.3   111  GLY111      0.1869
     90  C        -14.6630  -15.7040   14.9100 C.2   111  GLY111      0.2309
     91  O        -13.8130  -16.5610   14.5510 O.2   111  GLY111     -0.2863
     92  N        -12.1160  -13.8220   13.5050 N.3   113  ASN113     -0.1240
     93  CA       -10.9030  -13.0400   13.8620 C.3   113  ASN113      0.1653
     94  C         -9.7750  -13.3790   12.9280 C.2   113  ASN113      0.2266
     95  O         -8.6070  -13.4210   13.3110 O.2   113  ASN113     -0.2867
     96  CB       -10.4670  -13.2800   15.3500 C.3   113  ASN113      0.1155
     97  CG       -10.1180  -14.7610   15.6920 C.2   113  ASN113      0.2627
     98  OD1      -10.2560  -15.6410   14.8720 O.2   113  ASN113     -0.2716
     99  ND2       -9.6460  -15.0050   16.9310 N.am  113  ASN113     -0.0877
    100  N         -5.1450  -17.4910   12.8650 N.3   116  HIS116     -0.1226
    101  CA        -4.8060  -18.2400   14.0470 C.3   116  HIS116      0.1752
    102  C         -3.3570  -18.4390   14.0600 C.2   116  HIS116      0.2596
    103  O         -2.7950  -18.6440   13.0450 O.2   116  HIS116     -0.2718
    104  CB        -5.4380  -19.6500   13.9920 C.3   116  HIS116      0.0759
    105  CG        -4.8610  -20.5920   15.0130 C.ar  116  HIS116      0.0818
    106  ND1       -5.3210  -20.6450   16.3190 N.ar  116  HIS116     -0.2268
    107  CD2       -3.8170  -21.4410   14.9480 C.ar  116  HIS116      0.1154
    108  CE1       -4.6150  -21.5340   16.9960 C.ar  116  HIS116      0.1986
    109  NE2       -3.6710  -21.9980   16.2010 N.ar  116  HIS116     -0.2212
    110  N         -2.7930  -18.5010   15.2370 N.am  117  GLY117     -0.1957
    111  CA        -1.3660  -18.6110   15.4000 C.3   117  GLY117      0.1869
    112  C         -1.0620  -19.2780   16.6960 C.2   117  GLY117      0.2309
    113  O         -1.7630  -19.0820   17.7250 O.2   117  GLY117     -0.2863
    114  N          0.0190  -20.6490   20.1140 N.3   119  ASP119     -0.1239
    115  CA         0.2050  -19.8520   21.3290 C.3   119  ASP119      0.1674
    116  C          1.5780  -20.0680   21.9450 C.2   119  ASP119      0.2266
    117  O          1.8820  -21.1120   22.4890 O.2   119  ASP119     -0.2867
    118  CB        -0.9030  -20.1290   22.3350 C.3   119  ASP119      0.1410
    119  CG        -0.8250  -19.2260   23.5440 C.2   119  ASP119      0.3668
    120  OD1        0.1720  -18.4890   23.7460 O.co2 119  ASP119     -0.2456
    121  OD2       -1.6900  -19.2430   24.4000 O.co2 119  ASP119     -0.2456
@<TRIPOS>BOND
     1     4     3    2
     2     3     2    1
     3     1     2    1
     4     2     5    1
     5     5     6    1
     6     6     7    1
     7     7     8    1
     8   100   101    1
     9    94    95    2
    10    94    93    1
    11   103   102    2
    12    69    70    1
    13    92    93    1
    14     8     9    1
    15    72    71    2
    16    70    71    1
    17    70    73    1
    18    93    96    1
    19   104   101    1
    20   104   105    1
    21   101   102    1
    22   102   110   am
    23    46    45    2
    24    91    90    2
    25    74    73    1
    26    74    75    1
    27    98    97    2
    28    90    89    1
    29   107   105   ar
    30   107   109   ar
    31   105   106   ar
    32    21    20    1
    33    45    44    1
    34   110   111    1
    35    96    97    1
    36   111   112    1
    37    19    20   ar
    38    19    17   ar
    39    75    76    1
    40    76    77    2
    41    97    99   am
    42    20    18   ar
    43   109   108   ar
    44    44    43    1
    45    44    47    1
    46    89    88    1
    47    17    15   ar
    48   106   108   ar
    49    79    77    1
    50    77    78    1
    51   112   113    2
    52    88    82   am
    53    51    52    1
    54    18    16   ar
    55    83    82    2
    56    48    47    1
    57    48    50    1
    58    48    49    1
    59    82    81    1
    60    80    81    1
    61    15    16   ar
    62    15    14    1
    63    52    53    1
    64    52    55    1
    65    10    11    1
    66    81    84    1
    67    53    54    2
    68    14    11    1
    69    65    64    2
    70    11    12    1
    71    55    56    1
    72    56    57    1
    73    64    63    1
    74    84    85    1
    75    35    34    2
    76    63    62    1
    77    63    66    1
    78    58    57    1
    79    58    59    2
    80   114   115    1
    81    68    66    1
    82    12    13    2
    83    86    85    1
    84    61    59    1
    85    85    87    1
    86    59    60    1
    87    34    33    1
    88    66    67    1
    89   115   116    1
    90   115   118    1
    91    29    31   ar
    92    29    27   ar
    93    33    36    1
    94    33    32    1
    95    36    37    1
    96    38    40   ar
    97    38    37   ar
    98   116   117    2
    99   118   119    1
   100    31    30   ar
   101    40    42   ar
   102    37    39   ar
   103    26    27    1
   104    26    23    1
   105    27    28   ar
   106   119   120   ar
   107   119   121   ar
   108    30    28   ar
   109    22    23    1
   110    25    24    2
   111    24    23    1
   112    42    41   ar
   113    39    41   ar
