@<TRIPOS>MOLECULE
tmp/2az5A00.pdb
 83 83 0 0 0
SMALL
GASTEIGER

@<TRIPOS>ATOM
      1  N        -13.3420   64.2660   38.2270 N.3    43  LEU43      -0.1231
      2  CA       -14.1750   65.4100   37.8870 C.3    43  LEU43       0.1693
      3  C        -15.5880   65.0570   38.3350 C.2    43  LEU43       0.2592
      4  O        -16.0790   63.9850   38.0310 O.2    43  LEU43      -0.2718
      5  CB       -14.1880   65.6290   36.3750 C.3    43  LEU43       0.0284
      6  CG       -13.2550   66.6470   35.7260 C.3    43  LEU43       0.0019
      7  CD1      -13.0160   66.2880   34.2830 C.3    43  LEU43       0.0001
      8  CD2      -13.9190   68.0070   35.8120 C.3    43  LEU43       0.0001
      9  N        -16.2300   65.9490   39.0740 N.am   44  ILE44      -0.1966
     10  CA       -17.6090   65.7350   39.4990 C.3    44  ILE44       0.1727
     11  C        -18.4070   66.9250   39.0000 C.2    44  ILE44       0.2616
     12  O        -17.9530   68.0640   39.1000 O.2    44  ILE44      -0.2715
     13  CB       -17.7000   65.6030   41.0580 C.3    44  ILE44       0.0290
     14  CG1      -16.8450   64.4190   41.5310 C.3    44  ILE44       0.0022
     15  CG2      -19.1530   65.4950   41.5240 C.3    44  ILE44       0.0023
     16  CD1      -16.6200   64.3660   43.0270 C.3    44  ILE44       0.0001
     17  N        -19.5960   66.6620   38.4700 N.am   45  TYR45      -0.1960
     18  CA       -20.4280   67.7080   37.9060 C.3    45  TYR45       0.1771
     19  C        -21.8930   67.3610   38.0020 C.2    45  TYR45       0.2620
     20  O        -22.2770   66.1770   38.0750 O.2    45  TYR45      -0.2715
     21  CB       -20.0820   67.9720   36.4260 C.3    45  TYR45       0.0574
     22  CG       -20.4470   66.8230   35.5230 C.ar   45  TYR45      -0.0198
     23  CD1      -21.7410   66.7030   35.0040 C.ar   45  TYR45      -0.0009
     24  CD2      -19.5030   65.8470   35.1770 C.ar   45  TYR45      -0.0009
     25  CE1      -22.0850   65.6370   34.1580 C.ar   45  TYR45       0.0417
     26  CE2      -19.8440   64.7810   34.3380 C.ar   45  TYR45       0.0417
     27  CZ       -21.1410   64.6850   33.8370 C.ar   45  TYR45       0.1957
     28  OH       -21.4960   63.6450   33.0020 O.3    45  TYR45      -0.2866
     29  N        -22.7100   68.4110   37.9680 N.am   46  SER46      -0.1936
     30  CA       -24.1500   68.2610   37.9720 C.3    46  SER46       0.2055
     31  C        -24.8240   69.5210   37.4750 C.2    46  SER46       0.2642
     32  O        -24.2380   70.6180   37.5020 O.2    46  SER46      -0.2714
     33  CB       -24.6530   67.9400   39.3740 C.3    46  SER46       0.2130
     34  OG       -24.4470   69.0440   40.2300 O.3    46  SER46      -0.2179
     35  N        -26.0650   69.3490   37.0320 N.am   47  GLN47      -0.1976
     36  CA       -26.9240   70.4630   36.6720 C.3    47  GLN47       0.1601
     37  C        -28.3400   70.1010   37.0790 C.2    47  GLN47       0.2287
     38  O        -28.8050   68.9900   36.8020 O.2    47  GLN47      -0.2864
     39  CB       -26.9000   70.7060   35.1660 C.3    47  GLN47       0.0394
     40  CG       -27.9280   71.7730   34.7000 C.3    47  GLN47       0.0908
     41  CD       -27.8510   72.0120   33.2190 C.2    47  GLN47       0.2608
     42  OE1      -27.0670   72.8470   32.7460 O.2    47  GLN47      -0.2717
     43  NE2      -28.6490   71.2650   32.4670 N.am   47  GLN47      -0.0878
     44  N        -25.4990   74.9080   38.4020 N.3    94  TYR94      -0.1227
     45  CA       -24.4120   74.0120   37.9730 C.3    94  TYR94       0.1736
     46  C        -23.4350   73.8250   39.1260 C.2    94  TYR94       0.2595
     47  O        -23.2810   74.7130   39.9600 O.2    94  TYR94      -0.2718
     48  CB       -23.6170   74.6510   36.8180 C.3    94  TYR94       0.0548
     49  CG       -24.4580   75.4780   35.8840 C.ar   94  TYR94      -0.0200
     50  CD1      -24.3480   76.8720   35.8440 C.ar   94  TYR94      -0.0009
     51  CD2      -25.3810   74.8620   35.0520 C.ar   94  TYR94      -0.0009
     52  CE1      -25.1490   77.6240   34.9820 C.ar   94  TYR94       0.0417
     53  CE2      -26.1710   75.5870   34.2040 C.ar   94  TYR94       0.0417
     54  CZ       -26.0580   76.9550   34.1670 C.ar   94  TYR94       0.1957
     55  OH       -26.8820   77.6130   33.2830 O.3    94  TYR94      -0.2866
     56  N        -22.7590   72.6800   39.1660 N.am   95  LEU95      -0.1965
     57  CA       -21.6960   72.4590   40.1470 C.3    95  LEU95       0.1731
     58  C        -20.6200   71.6720   39.4520 C.2    95  LEU95       0.2656
     59  O        -20.9190   70.8480   38.5780 O.2    95  LEU95      -0.2711
     60  CB       -22.2100   71.6770   41.3580 C.3    95  LEU95       0.0311
     61  CG       -23.2990   72.3120   42.2360 C.3    95  LEU95       0.0022
     62  CD1      -23.7770   71.3360   43.3150 C.3    95  LEU95       0.0001
     63  CD2      -22.8260   73.6140   42.8620 C.3    95  LEU95       0.0001
     64  N        -19.3640   71.9190   39.8190 N.am   96  GLY96      -0.1716
     65  CA       -18.2860   71.1310   39.2420 C.2    96  GLY96       0.1480
     66  C        -16.9170   71.4230   39.7600 C.2    96  GLY96       0.2821
     67  O        -16.5750   72.5700   40.0380 O.2    96  GLY96      -0.2669
     68  N        -16.1140   70.3720   39.8690 N.am   97  GLY97      -0.1920
     69  CA       -14.7380   70.5270   40.3050 C.3    97  GLY97       0.1872
     70  C        -14.0190   69.2020   40.2980 C.2    97  GLY97       0.2310
     71  O        -14.6300   68.1520   40.0250 O.2    97  GLY97      -0.2863
     72  N        -29.0040   66.3490   35.6310 N.3   126  TYR126     -0.1241
     73  CA       -27.9880   65.2990   35.6130 C.3   126  TYR126      0.1605
     74  C        -26.8820   65.4920   36.6590 C.2   126  TYR126      0.2264
     75  O        -26.7210   66.5690   37.2580 O.2   126  TYR126     -0.2867
     76  CB       -27.3700   65.1270   34.2130 C.3   126  TYR126      0.0534
     77  CG       -26.7800   66.3840   33.6010 C.ar  126  TYR126     -0.0201
     78  CD1      -25.5670   66.9270   34.0700 C.ar  126  TYR126     -0.0009
     79  CD2      -27.4200   67.0190   32.5400 C.ar  126  TYR126     -0.0009
     80  CE1      -25.0300   68.0860   33.5090 C.ar  126  TYR126      0.0417
     81  CE2      -26.8950   68.1800   31.9680 C.ar  126  TYR126      0.0417
     82  CZ       -25.7000   68.7000   32.4520 C.ar  126  TYR126      0.1957
     83  OH       -25.1890   69.8370   31.8890 O.3   126  TYR126     -0.2866
@<TRIPOS>BOND
     1    83    82    1
     2    81    82   ar
     3    81    79   ar
     4    82    80   ar
     5    43    41   am
     6    79    77   ar
     7    42    41    2
     8    28    27    1
     9    41    40    1
    10    55    54    1
    11    80    78   ar
    12    77    78   ar
    13    77    76    1
    14    27    25   ar
    15    27    26   ar
    16    25    23   ar
    17    54    53   ar
    18    54    52   ar
    19    53    51   ar
    20    76    73    1
    21     7     6    1
    22    26    24   ar
    23    40    39    1
    24    52    50   ar
    25    23    22   ar
    26    51    49   ar
    27    39    36    1
    28    24    22   ar
    29    22    21    1
    30    73    72    1
    31    73    74    1
    32     6     8    1
    33     6     5    1
    34    50    49   ar
    35    49    48    1
    36     5     2    1
    37    21    18    1
    38    74    75    2
    39    36    35    1
    40    36    37    1
    41    38    37    2
    42    48    45    1
    43    35    31   am
    44    31    32    2
    45    31    30    1
    46     2     1    1
    47     2     3    1
    48    18    19    1
    49    18    17    1
    50    29    30    1
    51    29    19   am
    52    30    33    1
    53    45    44    1
    54    45    46    1
    55    19    20    2
    56     4     3    2
    57     3     9   am
    58    17    11   am
    59    59    58    2
    60    11    12    2
    61    11    10    1
    62     9    10    1
    63    46    56   am
    64    46    47    2
    65    56    57    1
    66    65    66    1
    67    65    64    2
    68    33    34    1
    69    58    64    1
    70    58    57    1
    71    10    13    1
    72    66    68   am
    73    66    67    2
    74    68    69    1
    75    71    70    2
    76    57    60    1
    77    70    69    1
    78    13    15    1
    79    13    14    1
    80    60    61    1
    81    14    16    1
    82    61    63    1
    83    61    62    1
