@<TRIPOS>MOLECULE
tmp/2az8A00.pdb
 100 95 0 0 0
SMALL
GASTEIGER

@<TRIPOS>ATOM
      1  N        -15.1860   33.2890   24.4380 N.3    25  ASP25      -0.1239
      2  CA       -16.5230   33.3730   24.9990 C.3    25  ASP25       0.1674
      3  C        -17.5760   32.3740   24.5020 C.2    25  ASP25       0.2266
      4  O        -18.1430   32.5490   23.4240 O.2    25  ASP25      -0.2867
      5  CB       -17.0150   34.7880   24.7370 C.3    25  ASP25       0.1410
      6  CG       -18.3380   35.0680   25.3680 C.2    25  ASP25       0.3668
      7  OD1      -18.7730   34.2620   26.1940 O.co2  25  ASP25      -0.2456
      8  OD2      -18.9190   36.1130   25.0490 O.co2  25  ASP25      -0.2456
      9  N        -20.4930   32.0720   25.4980 N.3    27  GLY27      -0.1210
     10  CA       -21.8030   32.7050   25.4850 C.3    27  GLY27       0.1956
     11  C        -22.0630   33.6980   24.3550 C.2    27  GLY27       0.2612
     12  O        -23.0960   34.3870   24.3440 O.2    27  GLY27      -0.2717
     13  N        -21.1420   33.7940   23.4010 N.am   28  ALA28      -0.1965
     14  CA       -21.3100   34.7110   22.2820 C.3    28  ALA28       0.1728
     15  C        -21.5190   33.9220   20.9970 C.2    28  ALA28       0.2616
     16  O        -20.6840   33.0920   20.6440 O.2    28  ALA28      -0.2715
     17  CB       -20.0750   35.6140   22.1400 C.3    28  ALA28       0.0334
     18  N        -22.6430   34.1660   20.3170 N.am   29  ASP29      -0.1957
     19  CA       -22.9310   33.4790   19.0470 C.3    29  ASP29       0.1840
     20  C        -21.9360   33.9730   18.0060 C.2    29  ASP29       0.2622
     21  O        -21.4970   33.2250   17.1280 O.2    29  ASP29      -0.2715
     22  CB       -24.3320   33.8290   18.4940 C.3    29  ASP29       0.1450
     23  CG       -25.4690   33.5000   19.4550 C.2    29  ASP29       0.3671
     24  OD1      -25.3460   32.5280   20.2410 O.co2  29  ASP29      -0.2456
     25  OD2      -26.5060   34.2110   19.4040 O.co2  29  ASP29      -0.2456
     26  N        -21.6020   35.2560   18.1090 N.am   30  ASP30      -0.1971
     27  CA       -20.7160   35.8800   17.1410 C.3    30  ASP30       0.1709
     28  C        -19.4200   36.4100   17.7390 C.2    30  ASP30       0.2293
     29  O        -19.2450   36.4550   18.9590 O.2    30  ASP30      -0.2864
     30  CB       -21.4400   37.0370   16.4550 C.3    30  ASP30       0.1436
     31  CG       -22.8020   36.6340   15.8880 C.2    30  ASP30       0.3671
     32  OD1      -22.8910   35.6390   15.1370 O.co2  30  ASP30      -0.2456
     33  OD2      -23.7860   37.3290   16.1920 O.co2  30  ASP30      -0.2456
     34  N        -17.0880   39.6350   18.2000 N.3    32  VAL32      -0.1245
     35  CA       -17.1790   41.0910   18.1090 C.3    32  VAL32       0.1561
     36  C        -15.9710   41.7830   18.7180 C.2    32  VAL32       0.2260
     37  O        -15.6260   41.6010   19.8940 O.2    32  VAL32      -0.2867
     38  CB       -18.5280   41.6510   18.7250 C.3    32  VAL32       0.0252
     39  CG1      -18.7750   41.0670   20.0730 C.3    32  VAL32       0.0019
     40  CG2      -18.4860   43.1940   18.8120 C.3    32  VAL32       0.0019
     41  N        -25.5460   45.4970   11.1590 N.3    45  LYS45      -0.1231
     42  CA       -26.0930   44.4320   11.9760 C.3    45  LYS45       0.1693
     43  C        -26.1560   44.8370   13.4390 C.2    45  LYS45       0.2592
     44  O        -25.4250   45.7190   13.8860 O.2    45  LYS45      -0.2718
     45  CB       -25.2260   43.1770   11.8120 C.3    45  LYS45       0.0285
     46  CG       -25.6190   42.0070   12.6920 C.3    45  LYS45       0.0035
     47  CD       -24.8760   40.7470   12.2820 C.3    45  LYS45       0.0206
     48  CE       -25.3650   39.5380   13.0690 C.3    45  LYS45       0.1093
     49  NZ       -24.8750   38.2780   12.4450 N.3    45  LYS45      -0.1314
     50  N        -27.0360   44.1940   14.1930 N.am   46  MET46      -0.1965
     51  CA       -27.1460   44.5090   15.6060 C.3    46  MET46       0.1736
     52  C        -27.0110   43.2760   16.4580 C.2    46  MET46       0.2616
     53  O        -27.3560   42.1750   16.0410 O.2    46  MET46      -0.2715
     54  CB       -28.4620   45.2210   15.8870 C.3    46  MET46       0.0427
     55  CG       -28.5180   46.5580   15.1720 C.3    46  MET46       0.0599
     56  SD       -29.8390   47.5970   15.7640 S.3    46  MET46      -0.1393
     57  CE       -28.9950   48.4210   17.0200 C.3    46  MET46       0.0692
     58  N        -26.4910   43.4610   17.6560 N.am   47  ILE47      -0.1963
     59  CA       -26.3000   42.3410   18.5530 C.3    47  ILE47       0.1727
     60  C        -26.8020   42.6840   19.9390 C.2    47  ILE47       0.2617
     61  O        -26.6540   43.8130   20.4120 O.2    47  ILE47      -0.2715
     62  CB       -24.7960   41.9400   18.6370 C.3    47  ILE47       0.0290
     63  CG1      -23.9650   43.1390   19.0770 C.3    47  ILE47       0.0022
     64  CG2      -24.3130   41.4270   17.2950 C.3    47  ILE47       0.0023
     65  CD1      -22.5300   42.8000   19.3600 C.3    47  ILE47       0.0001
     66  N        -27.3950   41.6970   20.5910 N.am   48  GLY48      -0.1940
     67  CA       -27.9140   41.9180   21.9240 C.3    48  GLY48       0.2014
     68  C        -27.1500   41.1790   22.9970 C.2    48  GLY48       0.2639
     69  O        -26.5710   40.1080   22.7670 O.2    48  GLY48      -0.2714
     70  N        -27.1360   41.7740   24.1780 N.am   49  GLY49      -0.1939
     71  CA       -26.4610   41.1640   25.3040 C.3    49  GLY49       0.2014
     72  C        -27.1900   41.6120   26.5490 C.2    49  GLY49       0.2638
     73  O        -28.3620   41.9930   26.4740 O.2    49  GLY49      -0.2714
     74  N        -26.5200   41.5640   27.6940 N.am   50  ILE50      -0.1977
     75  CA       -27.1400   42.0030   28.9320 C.3    50  ILE50       0.1596
     76  C        -27.2490   43.5360   28.9830 C.2    50  ILE50       0.2287
     77  O        -26.2680   44.2600   28.7940 O.2    50  ILE50      -0.2864
     78  CB       -26.3640   41.4620   30.1620 C.3    50  ILE50       0.0276
     79  CG1      -27.0680   40.2030   30.6740 C.3    50  ILE50       0.0022
     80  CG2      -26.2520   42.5120   31.2440 C.3    50  ILE50       0.0022
     81  CD1      -26.6870   39.7850   32.0730 C.3    50  ILE50       0.0001
     82  N        -28.9950   46.3130   23.2950 N.3    53  PHE53      -0.1241
     83  CA       -28.3970   46.0790   21.9490 C.3    53  PHE53       0.1605
     84  C        -27.4820   47.2550   21.4790 C.2    53  PHE53       0.2264
     85  O        -27.6920   48.3870   21.9130 O.2    53  PHE53      -0.2867
     86  CB       -29.4460   46.0720   20.7990 C.3    53  PHE53       0.0534
     87  CG       -30.4220   44.9410   20.7690 C.ar   53  PHE53      -0.0203
     88  CD1      -31.7170   45.0870   21.2470 C.ar   53  PHE53      -0.0042
     89  CD2      -30.0290   43.7050   20.2600 C.ar   53  PHE53      -0.0042
     90  CE1      -32.5990   44.0100   21.2140 C.ar   53  PHE53      -0.0003
     91  CE2      -30.9060   42.6150   20.2560 C.ar   53  PHE53      -0.0003
     92  CZ       -32.1950   42.7740   20.7360 C.ar   53  PHE53      -0.0000
     93  N        -14.2730   40.0140   21.7490 N.3    84  ILE84      -0.1245
     94  CA       -14.9830   38.7530   21.9690 C.3    84  ILE84       0.1561
     95  C        -14.8680   37.7500   20.8280 C.2    84  ILE84       0.2260
     96  O        -15.2400   38.0450   19.6980 O.2    84  ILE84      -0.2867
     97  CB       -16.4900   39.0200   22.2120 C.3    84  ILE84       0.0252
     98  CG1      -16.6530   39.7640   23.5390 C.3    84  ILE84       0.0019
     99  CG2      -17.2770   37.6900   22.2390 C.3    84  ILE84       0.0019
    100  CD1      -17.9690   40.3890   23.7300 C.3    84  ILE84       0.0001
@<TRIPOS>BOND
     1    41    42    1
     2    45    42    1
     3    45    46    1
     4    42    43    1
     5    47    46    1
     6    47    48    1
     7    49    48    1
     8    43    44    2
     9    43    50   am
    10    50    51    1
    11    32    31   ar
    12    55    56    1
    13    55    54    1
    14    51    54    1
    15    51    52    1
    16    56    57    1
    17    31    33   ar
    18    31    30    1
    19    53    52    2
    20    30    27    1
    21    52    58   am
    22    21    20    2
    23    27    28    1
    24    27    26    1
    25    64    62    1
    26    58    59    1
    27    28    29    2
    28    20    26   am
    29    20    19    1
    30    35    34    1
    31    35    36    1
    32    35    38    1
    33    22    19    1
    34    22    23    1
    35    59    62    1
    36    59    60    1
    37    62    63    1
    38    36    37    2
    39    38    40    1
    40    38    39    1
    41    19    18    1
    42    63    65    1
    43    25    23   ar
    44    23    24   ar
    45    96    95    2
    46    60    61    2
    47    60    66   am
    48    91    89   ar
    49    91    92   ar
    50    89    87   ar
    51    18    15   am
    52    66    67    1
    53    16    15    2
    54    92    90   ar
    55    87    86    1
    56    87    88   ar
    57    86    83    1
    58    95    94    1
    59    15    14    1
    60    90    88   ar
    61    84    85    2
    62    84    83    1
    63    93    94    1
    64    67    68    1
    65    83    82    1
    66    94    97    1
    67    17    14    1
    68    97    99    1
    69    97    98    1
    70    14    13    1
    71    69    68    2
    72    68    70   am
    73    13    11   am
    74     4     3    2
    75    98   100    1
    76    70    71    1
    77    12    11    2
    78    11    10    1
    79     1     2    1
    80     3     2    1
    81     5     2    1
    82     5     6    1
    83     8     6   ar
    84    71    72    1
    85     6     7   ar
    86    10     9    1
    87    73    72    2
    88    72    74   am
    89    74    75    1
    90    77    76    2
    91    75    76    1
    92    75    78    1
    93    78    79    1
    94    78    80    1
    95    79    81    1
