@<TRIPOS>MOLECULE
tmp/2azcB00.pdb
 71 65 0 0 0
SMALL
GASTEIGER

@<TRIPOS>ATOM
      1  N         91.4090   24.7280   24.2280 N.3     8  ARG8       -0.1245
      2  CA        92.7550   24.5300   24.7500 C.3     8  ARG8        0.1563
      3  C         92.8440   24.9470   26.2210 C.2     8  ARG8        0.2260
      4  O         92.3840   26.0280   26.6010 O.2     8  ARG8       -0.2867
      5  CB        93.7720   25.3160   23.9120 C.3     8  ARG8        0.0307
      6  CG        93.9040   24.8370   22.4530 C.3     8  ARG8        0.0489
      7  CD        95.2020   25.2920   21.7840 C.3     8  ARG8        0.2205
      8  NE        95.2060   24.9800   20.3500 N.pl3   8  ARG8       -0.0865
      9  CZ        95.1490   25.8880   19.3720 C.cat   8  ARG8        0.5346
     10  NH1       95.1030   27.1820   19.6600 N.pl3   8  ARG8        0.1354
     11  NH2       95.0760   25.5070   18.1050 N.pl3   8  ARG8        0.1354
     12  N         99.9140   26.5770   28.1240 N.3    23  LEU23      -0.1245
     13  CA        99.0390   25.4190   27.9470 C.3    23  LEU23       0.1561
     14  C         99.3420   24.2320   28.8830 C.2    23  LEU23       0.2260
     15  O        100.4990   23.7970   29.0280 O.2    23  LEU23      -0.2867
     16  CB        99.1110   24.9610   26.4820 C.3    23  LEU23       0.0270
     17  CG        98.2780   23.7410   26.0650 C.3    23  LEU23       0.0019
     18  CD1       96.8220   24.1250   25.8290 C.3    23  LEU23       0.0001
     19  CD2       98.8700   23.1730   24.7750 C.3    23  LEU23       0.0001
     20  N         99.8020   20.8220   29.2370 N.3    25  ASP25      -0.1239
     21  CA       100.0550   19.7540   28.2630 C.3    25  ASP25       0.1674
     22  C        100.4340   18.3760   28.8650 C.2    25  ASP25       0.2266
     23  O        101.6050   18.1050   29.1130 O.2    25  ASP25      -0.2867
     24  CB       101.1560   20.2560   27.3040 C.3    25  ASP25       0.1410
     25  CG       101.4050   19.3230   26.1350 C.2    25  ASP25       0.3668
     26  OD1      100.6430   18.3540   25.9680 O.co2  25  ASP25      -0.2456
     27  OD2      102.3680   19.5680   25.3770 O.co2  25  ASP25      -0.2456
     28  N        100.6940   15.6990   27.4630 N.3    27  GLY27      -0.1210
     29  CA       101.4780   14.9230   26.5340 C.3    27  GLY27       0.1956
     30  C        102.9220   15.3960   26.4910 C.2    27  GLY27       0.2611
     31  O        103.7290   14.8450   25.7460 O.2    27  GLY27      -0.2717
     32  N        103.2710   16.4040   27.2840 N.am   28  ALA28      -0.1979
     33  CA       104.6510   16.9030   27.2650 C.3    28  ALA28       0.1597
     34  C        105.4470   16.4310   28.4850 C.2    28  ALA28       0.2287
     35  O        104.9820   16.5500   29.6250 O.2    28  ALA28      -0.2864
     36  CB       104.6500   18.4430   27.2020 C.3    28  ALA28       0.0319
     37  N        106.0220   17.4400   17.1080 N.3    50  ILE50      -0.1245
     38  CA       105.4180   16.8760   15.9050 C.3    50  ILE50       0.1561
     39  C        105.8420   17.4240   14.5630 C.2    50  ILE50       0.2260
     40  O        105.4230   16.9070   13.5160 O.2    50  ILE50      -0.2867
     41  CB       103.8790   16.8980   15.9700 C.3    50  ILE50       0.0252
     42  CG1      103.3320   15.6850   15.2090 C.3    50  ILE50       0.0019
     43  CG2      103.3410   18.1710   15.3390 C.3    50  ILE50       0.0019
     44  CD1      101.9010   15.3770   15.5250 C.3    50  ILE50       0.0001
     45  N        109.3420   28.1930   20.8180 N.3    80  THR80      -0.1204
     46  CA       108.0830   27.4610   20.8080 C.3    80  THR80       0.1979
     47  C        106.9650   28.4480   20.5120 C.2    80  THR80       0.2460
     48  O        106.9780   29.5880   20.9860 O.2    80  THR80      -0.2732
     49  CB       107.7740   26.7720   22.1720 C.3    80  THR80       0.1783
     50  OG1      106.4330   26.2590   22.1560 O.3    80  THR80      -0.2211
     51  CG2      107.8950   27.7610   23.3430 C.3    80  THR80       0.0376
     52  N        105.9790   28.0220   19.7090 N.am   81  PRO81      -0.2717
     53  CA       104.8280   28.8380   19.3240 C.3    81  PRO81       0.1535
     54  C        104.0450   29.3000   20.5370 C.2    81  PRO81       0.2598
     55  O        103.4340   30.3550   20.5250 O.2    81  PRO81      -0.2715
     56  CB       103.9910   27.8810   18.4790 C.3    81  PRO81       0.0310
     57  CG       105.0070   26.9670   17.8940 C.3    81  PRO81       0.0237
     58  CD       105.9190   26.7000   19.0620 C.3    81  PRO81       0.0939
     59  N        104.0640   28.4840   21.5830 N.am   82  ALA82      -0.1978
     60  CA       103.3090   28.7870   22.7730 C.3    82  ALA82       0.1597
     61  C        103.9350   28.1790   24.0300 C.2    82  ALA82       0.2287
     62  O        104.6520   27.1740   23.9530 O.2    82  ALA82      -0.2864
     63  CB       101.9010   28.2510   22.6070 C.3    82  ALA82       0.0319
     64  N        104.2510   25.9750   27.0690 N.3    84  ILE84      -0.1245
     65  CA       103.7670   24.6310   27.3630 C.3    84  ILE84       0.1561
     66  C        104.1160   24.0770   28.7570 C.2    84  ILE84       0.2260
     67  O        105.2860   23.9480   29.1110 O.2    84  ILE84      -0.2867
     68  CB       104.3130   23.6820   26.2560 C.3    84  ILE84       0.0252
     69  CG1      103.6520   24.0570   24.9210 C.3    84  ILE84       0.0019
     70  CG2      104.1200   22.2340   26.6440 C.3    84  ILE84       0.0019
     71  CD1      104.1770   23.3020   23.7070 C.3    84  ILE84       0.0001
@<TRIPOS>BOND
     1    40    39    2
     2    39    38    1
     3    42    44    1
     4    42    41    1
     5    43    41    1
     6    38    41    1
     7    38    37    1
     8    57    56    1
     9    57    58    1
    10    11     9    1
    11    56    53    1
    12    58    52    1
    13    53    52    1
    14    53    54    1
    15     9    10    1
    16     9     8    2
    17    52    47   am
    18     8     7    1
    19    47    46    1
    20    47    48    2
    21    55    54    2
    22    54    59   am
    23    46    45    1
    24    46    49    1
    25    59    60    1
    26     7     6    1
    27    50    49    1
    28    49    51    1
    29     6     5    1
    30    63    60    1
    31    60    61    1
    32    71    69    1
    33     5     2    1
    34    62    61    2
    35     1     2    1
    36     2     3    1
    37    19    17    1
    38    69    68    1
    39    27    25   ar
    40    31    30    2
    41    18    17    1
    42    26    25   ar
    43    17    16    1
    44    25    24    1
    45     3     4    2
    46    68    70    1
    47    68    65    1
    48    16    13    1
    49    30    29    1
    50    30    32   am
    51    29    28    1
    52    64    65    1
    53    36    33    1
    54    33    32    1
    55    33    34    1
    56    24    21    1
    57    65    66    1
    58    13    12    1
    59    13    14    1
    60    21    22    1
    61    21    20    1
    62    34    35    2
    63    66    67    2
    64    22    23    2
    65    14    15    2
