@<TRIPOS>MOLECULE
tmp/2aznC02.pdb
 112 104 0 0 0
SMALL
GASTEIGER

@<TRIPOS>ATOM
      1  N        -10.8730  -13.6340  -58.2270 N.3     2  LYS2       -0.1231
      2  CA       -10.6560  -12.8490  -57.0220 C.3     2  LYS2        0.1693
      3  C        -10.0260  -13.6280  -55.8660 C.2     2  LYS2        0.2591
      4  O         -9.4460  -14.7060  -56.0460 O.2     2  LYS2       -0.2718
      5  CB       -11.9800  -12.2260  -56.5660 C.3     2  LYS2        0.0285
      6  CG       -12.3810  -10.9750  -57.3410 C.3     2  LYS2        0.0035
      7  CD       -11.9580   -9.6990  -56.6120 C.3     2  LYS2        0.0206
      8  CE       -10.4440   -9.6010  -56.4300 C.3     2  LYS2        0.1093
      9  NZ       -10.0450   -8.4150  -55.6080 N.3     2  LYS2       -0.1314
     10  N        -10.1430  -13.0590  -54.6740 N.am    3  LYS3       -0.1980
     11  CA        -9.5970  -13.6630  -53.4740 C.3     3  LYS3        0.1596
     12  C        -10.7200  -14.1590  -52.5680 C.2     3  LYS3        0.2287
     13  O        -11.8970  -13.8910  -52.8140 O.2     3  LYS3       -0.2864
     14  CB        -8.7540  -12.6320  -52.7140 C.3     3  LYS3        0.0298
     15  CG        -9.5730  -11.4740  -52.1430 C.3     3  LYS3        0.0038
     16  CD        -8.8270  -10.7510  -51.0240 C.3     3  LYS3        0.0206
     17  CE        -9.7350   -9.7560  -50.3130 C.3     3  LYS3        0.1093
     18  NZ       -10.9820  -10.4050  -49.8020 N.3     3  LYS3       -0.1314
     19  N        -13.2580  -14.4100  -49.4260 N.3     5  TYR5       -0.1241
     20  CA       -13.9160  -13.3470  -48.6890 C.3     5  TYR5        0.1605
     21  C        -13.2740  -13.4490  -47.3040 C.2     5  TYR5        0.2264
     22  O        -13.1950  -14.5330  -46.7250 O.2     5  TYR5       -0.2867
     23  CB       -15.4130  -13.6040  -48.6030 C.3     5  TYR5        0.0534
     24  CG       -16.1670  -12.4520  -48.0130 C.ar    5  TYR5       -0.0201
     25  CD1      -16.6110  -12.4890  -46.6950 C.ar    5  TYR5       -0.0009
     26  CD2      -16.4430  -11.3150  -48.7790 C.ar    5  TYR5       -0.0009
     27  CE1      -17.3210  -11.4190  -46.1450 C.ar    5  TYR5        0.0417
     28  CE2      -17.1490  -10.2450  -48.2440 C.ar    5  TYR5        0.0417
     29  CZ       -17.5850  -10.3020  -46.9260 C.ar    5  TYR5        0.1957
     30  OH       -18.2720   -9.2380  -46.3930 O.3     5  TYR5       -0.2866
     31  N        -13.1610  -12.2740  -43.2780 N.3     7  ILE7       -0.1245
     32  CA       -13.8020  -11.6880  -42.1180 C.3     7  ILE7        0.1561
     33  C        -12.7870  -11.6410  -40.9850 C.2     7  ILE7        0.2260
     34  O        -12.1920  -12.6590  -40.6280 O.2     7  ILE7       -0.2867
     35  CB       -14.9760  -12.5420  -41.6720 C.3     7  ILE7        0.0252
     36  CG1      -15.8590  -12.8310  -42.8820 C.3     7  ILE7        0.0019
     37  CG2      -15.7300  -11.8370  -40.5510 C.3     7  ILE7        0.0019
     38  CD1      -16.8780  -13.8930  -42.6510 C.3     7  ILE7        0.0001
     39  N        -19.3550  -18.6480  -36.3290 N.3    38  ILE38      -0.1245
     40  CA       -18.7070  -18.0630  -37.5010 C.3    38  ILE38       0.1561
     41  C        -17.7230  -19.0810  -38.0590 C.2    38  ILE38       0.2260
     42  O        -17.6180  -19.2630  -39.2730 O.2    38  ILE38      -0.2867
     43  CB       -17.9250  -16.7800  -37.1500 C.3    38  ILE38       0.0252
     44  CG1      -18.8740  -15.7170  -36.5960 C.3    38  ILE38       0.0019
     45  CG2      -17.2280  -16.2470  -38.3850 C.3    38  ILE38       0.0019
     46  CD1      -18.1680  -14.5040  -36.0370 C.3    38  ILE38       0.0001
     47  N        -19.1450  -21.5770  -40.2220 N.3    41  ASN41      -0.1225
     48  CA       -19.6170  -21.1270  -41.5200 C.3    41  ASN41       0.1785
     49  C        -18.6010  -20.6100  -42.5280 C.2    41  ASN41       0.2597
     50  O        -18.9860  -20.0340  -43.5460 O.2    41  ASN41      -0.2718
     51  CB       -20.7320  -20.1030  -41.3180 C.3    41  ASN41       0.1169
     52  CG       -21.9930  -20.7400  -40.7430 C.2    41  ASN41       0.2627
     53  OD1      -22.5670  -21.6520  -41.3440 O.2    41  ASN41      -0.2716
     54  ND2      -22.4210  -20.2720  -39.5740 N.am   41  ASN41      -0.0877
     55  N        -17.3100  -20.8030  -42.2650 N.am   42  VAL42      -0.1980
     56  CA       -16.2880  -20.3380  -43.2070 C.3    42  VAL42       0.1595
     57  C        -15.4980  -21.5430  -43.6880 C.2    42  VAL42       0.2287
     58  O        -15.5290  -22.5960  -43.0630 O.2    42  VAL42      -0.2864
     59  CB       -15.3070  -19.3140  -42.5670 C.3    42  VAL42       0.0276
     60  CG1      -16.0290  -18.0180  -42.2560 C.3    42  VAL42       0.0022
     61  CG2      -14.6950  -19.8930  -41.2950 C.3    42  VAL42       0.0022
     62  N         -7.5460  -19.5690  -52.7100 N.3   135  TYR135     -0.1241
     63  CA        -8.7560  -19.5180  -53.5130 C.3   135  TYR135      0.1605
     64  C         -8.8000  -20.7290  -54.4450 C.2   135  TYR135      0.2264
     65  O         -9.8230  -21.4100  -54.5500 O.2   135  TYR135     -0.2867
     66  CB        -8.7870  -18.2280  -54.3310 C.3   135  TYR135      0.0534
     67  CG       -10.1010  -18.0170  -55.0310 C.ar  135  TYR135     -0.0201
     68  CD1      -10.2820  -18.4110  -56.3560 C.ar  135  TYR135     -0.0009
     69  CD2      -11.1870  -17.4800  -54.3440 C.ar  135  TYR135     -0.0009
     70  CE1      -11.5180  -18.2800  -56.9810 C.ar  135  TYR135      0.0417
     71  CE2      -12.4230  -17.3460  -54.9510 C.ar  135  TYR135      0.0417
     72  CZ       -12.5880  -17.7480  -56.2670 C.ar  135  TYR135      0.1957
     73  OH       -13.8350  -17.6390  -56.8370 O.3   135  TYR135     -0.2866
     74  N        -13.0540  -20.2090  -50.1460 N.3   140  LYS140     -0.1231
     75  CA       -13.5650  -18.9090  -50.5430 C.3   140  LYS140      0.1693
     76  C        -13.9580  -17.9590  -49.4310 C.2   140  LYS140      0.2592
     77  O        -14.2610  -16.7940  -49.6890 O.2   140  LYS140     -0.2718
     78  CB       -14.7050  -19.0600  -51.5470 C.3   140  LYS140      0.0285
     79  CG       -15.5890  -20.2640  -51.3690 C.3   140  LYS140      0.0035
     80  CD       -16.5410  -20.3450  -52.5520 C.3   140  LYS140      0.0206
     81  CE       -17.5010  -21.5100  -52.4310 C.3   140  LYS140      0.1093
     82  NZ       -16.7790  -22.8100  -52.4580 N.3   140  LYS140     -0.1314
     83  N        -13.9620  -18.4440  -48.1980 N.am  141  SER141     -0.1952
     84  CA       -14.3070  -17.5920  -47.0690 C.3   141  SER141      0.1924
     85  C        -13.3200  -17.9690  -45.9730 C.2   141  SER141      0.2314
     86  O        -13.0670  -19.1500  -45.7270 O.2   141  SER141     -0.2863
     87  CB       -15.7470  -17.8120  -46.6060 C.3   141  SER141      0.2116
     88  OG       -15.9220  -19.1210  -46.1080 O.3   141  SER141     -0.2180
     89  N        -14.6950   -7.5960  -44.1380 N.3   161  GLU161     -0.1245
     90  CA       -15.5500   -7.0940  -43.0760 C.3   161  GLU161      0.1567
     91  C        -14.9300   -7.3630  -41.7110 C.2   161  GLU161      0.2260
     92  O        -14.0160   -8.1790  -41.5730 O.2   161  GLU161     -0.2867
     93  CB       -16.9720   -7.6420  -43.1840 C.3   161  GLU161      0.0388
     94  CG       -17.1720   -9.0810  -42.8420 C.3   161  GLU161      0.1160
     95  CD       -18.6310   -9.4720  -42.9800 C.2   161  GLU161      0.3649
     96  OE1      -19.0750   -9.7200  -44.1240 O.co2 161  GLU161     -0.2457
     97  OE2      -19.3370   -9.5090  -41.9460 O.co2 161  GLU161     -0.2457
     98  N        -15.7310   -7.8090  -37.3210 N.3   163  SER163     -0.1217
     99  CA       -16.6440   -7.9990  -36.2010 C.3   163  SER163      0.1889
    100  C        -15.7210   -7.9550  -34.9790 C.2   163  SER163      0.2288
    101  O        -14.7060   -8.6470  -34.9130 O.2   163  SER163     -0.2866
    102  CB       -17.4170   -9.3300  -36.2900 C.3   163  SER163      0.2089
    103  OG       -16.5690  -10.4630  -36.3270 O.3   163  SER163     -0.2183
    104  N        -20.0820   -4.5760  -35.7200 N.3   209  GLU209     -0.1245
    105  CA       -19.8730   -5.1720  -37.0310 C.3   209  GLU209      0.1567
    106  C        -19.6830   -4.0760  -38.0620 C.2   209  GLU209      0.2260
    107  O        -20.5070   -3.1660  -38.1830 O.2   209  GLU209     -0.2867
    108  CB       -21.0460   -6.0800  -37.3960 C.3   209  GLU209      0.0388
    109  CG       -21.0930   -7.3370  -36.5410 C.3   209  GLU209      0.1160
    110  CD       -22.2910   -8.2350  -36.8270 C.2   209  GLU209      0.3649
    111  OE1      -22.3660   -9.3150  -36.2000 O.co2 209  GLU209     -0.2457
    112  OE2      -23.1580   -7.8760  -37.6610 O.co2 209  GLU209     -0.2457
@<TRIPOS>BOND
     1     1     2    1
     2     6     7    1
     3     6     5    1
     4     2     5    1
     5     2     3    1
     6    70    68   ar
     7    70    72   ar
     8    73    72    1
     9     7     8    1
    10     8     9    1
    11    68    67   ar
    12    72    71   ar
    13     4     3    2
    14     3    10   am
    15    67    69   ar
    16    67    66    1
    17    71    69   ar
    18    10    11    1
    19    65    64    2
    20    64    63    1
    21    66    63    1
    22    63    62    1
    23    11    14    1
    24    11    12    1
    25    13    12    2
    26    14    15    1
    27    80    81    1
    28    80    79    1
    29    82    81    1
    30    15    16    1
    31    78    79    1
    32    78    75    1
    33    16    17    1
    34    75    74    1
    35    75    76    1
    36    17    18    1
    37    77    76    2
    38    76    83   am
    39    19    20    1
    40    26    28   ar
    41    26    24   ar
    42    20    23    1
    43    20    21    1
    44    23    24    1
    45    28    29   ar
    46    83    84    1
    47    24    25   ar
    48    21    22    2
    49    84    87    1
    50    84    85    1
    51    29    30    1
    52    29    27   ar
    53    25    27   ar
    54    87    88    1
    55    85    86    2
    56    89    90    1
    57    96    95   ar
    58    57    56    1
    59    57    58    2
    60    50    49    2
    61    31    32    1
    62    56    59    1
    63    56    55    1
    64    93    90    1
    65    93    94    1
    66    90    91    1
    67    95    94    1
    68    95    97   ar
    69    36    38    1
    70    36    35    1
    71    59    60    1
    72    59    61    1
    73    49    55   am
    74    49    48    1
    75    32    35    1
    76    32    33    1
    77    91    92    2
    78    35    37    1
    79    48    51    1
    80    48    47    1
    81    53    52    2
    82    51    52    1
    83    33    34    2
    84    52    54   am
    85    42    41    2
    86    45    43    1
    87   107   106    2
    88   106   105    1
    89    41    40    1
    90   112   110   ar
    91    40    43    1
    92    40    39    1
    93   108   105    1
    94   108   109    1
    95    98    99    1
    96    43    44    1
    97   105   104    1
    98   110   109    1
    99   110   111   ar
   100    44    46    1
   101   103   102    1
   102   102    99    1
   103    99   100    1
   104   100   101    2
