@<TRIPOS>MOLECULE
tmp/2aznC01.pdb
 96 93 0 0 0
SMALL
GASTEIGER

@<TRIPOS>ATOM
      1  N        -20.8130  -16.2320  -24.1180 N.3    30  GLU30      -0.1245
      2  CA       -21.6860  -15.8340  -25.2080 C.3    30  GLU30       0.1567
      3  C        -20.8840  -15.5260  -26.4680 C.2    30  GLU30       0.2260
      4  O        -21.2450  -15.9580  -27.5650 O.2    30  GLU30      -0.2867
      5  CB       -22.5080  -14.6090  -24.8050 C.3    30  GLU30       0.0388
      6  CG       -23.5120  -14.8430  -23.6740 C.3    30  GLU30       0.1160
      7  CD       -22.9110  -14.6890  -22.2780 C.2    30  GLU30       0.3649
      8  OE1      -23.6900  -14.6660  -21.2990 O.co2  30  GLU30      -0.2457
      9  OE2      -21.6720  -14.5910  -22.1530 O.co2  30  GLU30      -0.2457
     10  N        -19.4080  -18.6090  -28.2770 N.3    33  ILE33      -0.1231
     11  CA       -20.3960  -19.3240  -29.0740 C.3    33  ILE33       0.1692
     12  C        -20.5150  -18.6030  -30.4160 C.2    33  ILE33       0.2591
     13  O        -20.5020  -19.2410  -31.4750 O.2    33  ILE33      -0.2718
     14  CB       -21.7940  -19.3770  -28.3670 C.3    33  ILE33       0.0266
     15  CG1      -21.8320  -20.5190  -27.3510 C.3    33  ILE33       0.0019
     16  CG2      -22.9030  -19.6140  -29.3810 C.3    33  ILE33       0.0020
     17  CD1      -20.7970  -20.4070  -26.2670 C.3    33  ILE33       0.0001
     18  N        -20.6090  -17.2740  -30.3630 N.am   34  ARG34      -0.1980
     19  CA       -20.7270  -16.4670  -31.5700 C.3    34  ARG34       0.1597
     20  C        -19.5650  -16.7430  -32.5110 C.2    34  ARG34       0.2287
     21  O        -19.7520  -16.9440  -33.7100 O.2    34  ARG34      -0.2864
     22  CB       -20.7460  -14.9820  -31.2170 C.3    34  ARG34       0.0334
     23  CG       -20.9120  -14.0520  -32.4200 C.3    34  ARG34       0.0492
     24  CD       -20.8400  -12.5970  -31.9780 C.3    34  ARG34       0.2205
     25  NE       -19.4820  -12.2500  -31.5890 N.pl3  34  ARG34      -0.0865
     26  CZ       -18.5280  -11.9210  -32.4530 C.cat  34  ARG34       0.5346
     27  NH1      -18.8000  -11.8810  -33.7530 N.pl3  34  ARG34       0.1354
     28  NH2      -17.2950  -11.6730  -32.0250 N.pl3  34  ARG34       0.1354
     29  N        -19.7710  -20.1230  -34.1400 N.3    37  LYS37      -0.1245
     30  CA       -20.8000  -20.2220  -35.1600 C.3    37  LYS37       0.1561
     31  C        -20.1850  -19.6840  -36.4480 C.2    37  LYS37       0.2260
     32  O        -20.4450  -20.2090  -37.5310 O.2    37  LYS37      -0.2867
     33  CB       -22.0380  -19.4160  -34.7850 C.3    37  LYS37       0.0271
     34  CG       -22.8100  -19.9830  -33.6220 C.3    37  LYS37       0.0035
     35  CD       -24.0820  -19.1870  -33.4130 C.3    37  LYS37       0.0206
     36  CE       -25.3200  -19.9680  -33.8290 C.3    37  LYS37       0.1093
     37  NZ       -25.8240  -20.8480  -32.7290 N.3    37  LYS37      -0.1314
     38  N        -23.6510   -2.8200  -37.8690 N.3   198  ASN198     -0.1225
     39  CA       -24.5040   -3.3320  -36.8080 C.3   198  ASN198      0.1785
     40  C        -23.7740   -3.4160  -35.4630 C.2   198  ASN198      0.2597
     41  O        -22.5490   -3.4250  -35.4030 O.2   198  ASN198     -0.2718
     42  CB       -25.0000   -4.7190  -37.2640 C.3   198  ASN198      0.1169
     43  CG       -25.8780   -5.4170  -36.2410 C.2   198  ASN198      0.2627
     44  OD1      -26.8180   -4.8420  -35.7090 O.2   198  ASN198     -0.2716
     45  ND2      -25.5820   -6.6790  -35.9870 N.am  198  ASN198     -0.0877
     46  N        -24.5380   -3.4800  -34.3830 N.am  199  PHE199     -0.1962
     47  CA       -23.9710   -3.5640  -33.0480 C.3   199  PHE199      0.1771
     48  C        -25.0430   -3.9730  -32.0380 C.2   199  PHE199      0.2620
     49  O        -26.2250   -3.6600  -32.2080 O.2   199  PHE199     -0.2715
     50  CB       -23.3780   -2.2210  -32.6600 C.3   199  PHE199      0.0574
     51  CG       -24.3770   -1.1130  -32.6330 C.ar  199  PHE199     -0.0200
     52  CD1      -25.1580   -0.8880  -31.5010 C.ar  199  PHE199     -0.0042
     53  CD2      -24.5450   -0.2900  -33.7440 C.ar  199  PHE199     -0.0042
     54  CE1      -26.0860    0.1390  -31.4760 C.ar  199  PHE199     -0.0003
     55  CE2      -25.4740    0.7420  -33.7280 C.ar  199  PHE199     -0.0003
     56  CZ       -26.2470    0.9570  -32.5900 C.ar  199  PHE199     -0.0000
     57  N        -24.6280   -4.6610  -30.9800 N.am  200  TYR200     -0.1960
     58  CA       -25.5710   -5.1010  -29.9560 C.3   200  TYR200      0.1771
     59  C        -24.8240   -5.6680  -28.7670 C.2   200  TYR200      0.2619
     60  O        -23.7180   -6.1920  -28.9210 O.2   200  TYR200     -0.2715
     61  CB       -26.4890   -6.1830  -30.5270 C.3   200  TYR200      0.0574
     62  CG       -25.7390   -7.3440  -31.1320 C.ar  200  TYR200     -0.0198
     63  CD1      -25.3250   -8.4260  -30.3440 C.ar  200  TYR200     -0.0009
     64  CD2      -25.4140   -7.3520  -32.4880 C.ar  200  TYR200     -0.0009
     65  CE1      -24.6040   -9.4930  -30.8990 C.ar  200  TYR200      0.0417
     66  CE2      -24.6960   -8.4030  -33.0530 C.ar  200  TYR200      0.0417
     67  CZ       -24.2940   -9.4700  -32.2510 C.ar  200  TYR200      0.1957
     68  OH       -23.5830  -10.5080  -32.7960 O.3   200  TYR200     -0.2866
     69  N        -25.4110   -5.5740  -27.5800 N.am  201  ARG201     -0.1963
     70  CA       -24.7030   -6.1150  -26.4410 C.3   201  ARG201      0.1729
     71  C        -24.7490   -7.6280  -26.4730 C.2   201  ARG201      0.2616
     72  O        -25.6610   -8.2200  -27.0340 O.2   201  ARG201     -0.2715
     73  CB       -25.2170   -5.5550  -25.1020 C.3   201  ARG201      0.0348
     74  CG       -26.6950   -5.3560  -24.9410 C.3   201  ARG201      0.0492
     75  CD       -26.9370   -4.2280  -23.9040 C.3   201  ARG201      0.2205
     76  NE       -25.9500   -4.2770  -22.8290 N.pl3 201  ARG201     -0.0865
     77  CZ       -25.7450   -3.3190  -21.9270 C.cat 201  ARG201      0.5346
     78  NH1      -26.4610   -2.2040  -21.9450 N.pl3 201  ARG201      0.1354
     79  NH2      -24.8020   -3.4760  -21.0080 N.pl3 201  ARG201      0.1354
     80  N        -23.7060   -8.2360  -25.9220 N.am  202  LEU202     -0.1977
     81  CA       -23.5710   -9.6830  -25.8580 C.3   202  LEU202      0.1596
     82  C        -22.8820   -9.9210  -24.5270 C.2   202  LEU202      0.2287
     83  O        -21.7420   -9.4980  -24.3220 O.2   202  LEU202     -0.2864
     84  CB       -22.7070  -10.1970  -27.0160 C.3   202  LEU202      0.0297
     85  CG       -22.4960  -11.7140  -27.0910 C.3   202  LEU202      0.0022
     86  CD1      -23.8370  -12.4040  -27.2350 C.3   202  LEU202      0.0001
     87  CD2      -21.6030  -12.0700  -28.2680 C.3   202  LEU202      0.0001
     88  N        -20.0820   -4.5760  -35.7200 N.3   209  GLU209     -0.1245
     89  CA       -19.8730   -5.1720  -37.0310 C.3   209  GLU209      0.1567
     90  C        -19.6830   -4.0760  -38.0620 C.2   209  GLU209      0.2260
     91  O        -20.5070   -3.1660  -38.1830 O.2   209  GLU209     -0.2867
     92  CB       -21.0460   -6.0800  -37.3960 C.3   209  GLU209      0.0388
     93  CG       -21.0930   -7.3370  -36.5410 C.3   209  GLU209      0.1160
     94  CD       -22.2910   -8.2350  -36.8270 C.2   209  GLU209      0.3649
     95  OE1      -22.3660   -9.3150  -36.2000 O.co2 209  GLU209     -0.2457
     96  OE2      -23.1580   -7.8760  -37.6610 O.co2 209  GLU209     -0.2457
@<TRIPOS>BOND
     1    91    90    2
     2    90    89    1
     3    38    39    1
     4    96    94   ar
     5    32    31    2
     6    92    89    1
     7    92    93    1
     8    42    39    1
     9    42    43    1
    10    89    88    1
    11    94    93    1
    12    94    95   ar
    13    39    40    1
    14    31    30    1
    15    43    45   am
    16    43    44    2
    17    40    41    2
    18    40    46   am
    19    30    33    1
    20    30    29    1
    21    33    34    1
    22    46    47    1
    23    36    35    1
    24    36    37    1
    25    27    26    1
    26    53    55   ar
    27    53    51   ar
    28    55    56   ar
    29    21    20    2
    30    34    35    1
    31    66    64   ar
    32    66    67   ar
    33    47    50    1
    34    47    48    1
    35    68    67    1
    36    50    51    1
    37    51    52   ar
    38    56    54   ar
    39    20    19    1
    40    64    62   ar
    41    26    28    1
    42    26    25    2
    43    23    24    1
    44    23    22    1
    45    67    65   ar
    46    49    48    2
    47    48    57   am
    48    24    25    1
    49    19    22    1
    50    19    18    1
    51    52    54   ar
    52    13    12    2
    53    62    61    1
    54    62    63   ar
    55    57    58    1
    56    65    63   ar
    57    61    58    1
    58    12    18   am
    59    12    11    1
    60    58    59    1
    61    16    14    1
    62    11    14    1
    63    11    10    1
    64    60    59    2
    65    59    69   am
    66    14    15    1
    67    87    85    1
    68    69    70    1
    69     4     3    2
    70    15    17    1
    71    86    85    1
    72    85    84    1
    73    72    71    2
    74    84    81    1
    75    71    70    1
    76    71    80   am
    77     3     2    1
    78    70    73    1
    79    80    81    1
    80    81    82    1
    81     2     5    1
    82     2     1    1
    83    73    74    1
    84    74    75    1
    85     5     6    1
    86    82    83    2
    87    75    76    1
    88     6     7    1
    89    76    77    2
    90     7     9   ar
    91     7     8   ar
    92    78    77    1
    93    77    79    1
