@<TRIPOS>MOLECULE
tmp/2azqA00.pdb
 143 136 0 0 0
SMALL
GASTEIGER

@<TRIPOS>ATOM
      1  N          8.8200   -1.5010    4.1880 N.3    39  THR39      -0.1218
      2  CA         9.7650   -2.6050    4.2520 C.3    39  THR39       0.1862
      3  C          9.1630   -3.7740    5.0240 C.2    39  THR39       0.2287
      4  O          9.2550   -4.9320    4.6060 O.2    39  THR39      -0.2866
      5  CB        11.0950   -2.1490    4.8850 C.3    39  THR39       0.1770
      6  OG1       11.7620   -1.2820    3.9680 O.3    39  THR39      -0.2211
      7  CG2       12.0070   -3.3360    5.1720 C.3    39  THR39       0.0375
      8  N          6.5600   -5.7640    2.8620 N.3    42  LEU42      -0.1231
      9  CA         7.0920   -6.7120    1.8900 C.3    42  LEU42       0.1693
     10  C          7.3860   -7.9890    2.6640 C.2    42  LEU42       0.2591
     11  O          6.9340   -9.0720    2.3130 O.2    42  LEU42      -0.2718
     12  CB         8.4410   -6.3100    1.3170 C.3    42  LEU42       0.0284
     13  CG         8.9200   -5.2010    0.4250 C.3    42  LEU42       0.0019
     14  CD1       10.3680   -5.5150    0.2230 C.3    42  LEU42       0.0001
     15  CD2        8.2260   -5.1680   -0.9170 C.3    42  LEU42       0.0001
     16  N          8.2060   -7.8450    3.6980 N.am   43  ILE43      -0.1980
     17  CA         8.5840   -8.9780    4.5040 C.3    43  ILE43       0.1595
     18  C          7.3660   -9.7980    4.9170 C.2    43  ILE43       0.2287
     19  O          7.4210  -11.0170    4.9530 O.2    43  ILE43      -0.2864
     20  CB         9.3610   -8.5140    5.7470 C.3    43  ILE43       0.0276
     21  CG1       10.6600   -7.8390    5.3040 C.3    43  ILE43       0.0022
     22  CG2        9.6140   -9.6900    6.6770 C.3    43  ILE43       0.0022
     23  CD1       11.3480   -7.0570    6.4060 C.3    43  ILE43       0.0001
     24  N          9.4920  -12.9470    3.3060 N.3    48  ILE48      -0.1245
     25  CA        10.9280  -13.0390    3.1180 C.3    48  ILE48       0.1561
     26  C         11.5100  -13.7890    4.3290 C.2    48  ILE48       0.2260
     27  O         11.1570  -13.5230    5.4740 O.2    48  ILE48      -0.2867
     28  CB        11.5670  -11.6130    2.9750 C.3    48  ILE48       0.0252
     29  CG1       11.2880  -11.0440    1.5830 C.3    48  ILE48       0.0019
     30  CG2       13.0800  -11.6580    3.1480 C.3    48  ILE48       0.0019
     31  CD1        9.8590  -10.7420    1.3140 C.3    48  ILE48       0.0001
     32  N         17.2390  -15.6480    5.9290 N.3    51  ASP51      -0.1225
     33  CA        18.3620  -15.7890    5.0010 C.3    51  ASP51       0.1805
     34  C         18.2510  -14.8270    3.8370 C.2    51  ASP51       0.2598
     35  O         19.2470  -14.2770    3.3850 O.2    51  ASP51      -0.2718
     36  CB        18.4620  -17.1930    4.4170 C.3    51  ASP51       0.1424
     37  CG        18.6270  -18.2530    5.4660 C.2    51  ASP51       0.3668
     38  OD1       19.4910  -18.0900    6.3540 O.co2  51  ASP51      -0.2456
     39  OD2       17.9030  -19.2710    5.3910 O.co2  51  ASP51      -0.2456
     40  N         17.0400  -14.6190    3.3440 N.am   52  GLU52      -0.1965
     41  CA        16.8890  -13.7170    2.2210 C.3    52  GLU52       0.1733
     42  C         17.2020  -12.3050    2.7060 C.2    52  GLU52       0.2616
     43  O         17.9500  -11.5650    2.0750 O.2    52  GLU52      -0.2715
     44  CB        15.4690  -13.8290    1.6160 C.3    52  GLU52       0.0429
     45  CG        15.1780  -15.2200    1.1440 C.3    52  GLU52       0.1163
     46  CD        13.8580  -15.3890    0.4240 C.2    52  GLU52       0.3649
     47  OE1       12.7970  -15.1440    1.0280 O.co2  52  GLU52      -0.2457
     48  OE2       13.8910  -15.7920   -0.7560 O.co2  52  GLU52      -0.2457
     49  N         16.6460  -11.9610    3.8540 N.am   53  PHE53      -0.1974
     50  CA        16.8410  -10.6430    4.4230 C.3    53  PHE53       0.1639
     51  C         18.2960  -10.3120    4.6340 C.2    53  PHE53       0.2290
     52  O         18.7240   -9.2010    4.2940 O.2    53  PHE53      -0.2864
     53  CB        16.1350  -10.5060    5.7620 C.3    53  PHE53       0.0560
     54  CG        16.2960   -9.1660    6.3570 C.ar   53  PHE53      -0.0200
     55  CD1       15.4130   -8.1590    6.0550 C.ar   53  PHE53      -0.0042
     56  CD2       17.4030   -8.8700    7.1450 C.ar   53  PHE53      -0.0042
     57  CE1       15.6200   -6.8720    6.5210 C.ar   53  PHE53      -0.0003
     58  CE2       17.6190   -7.5830    7.6120 C.ar   53  PHE53      -0.0003
     59  CZ        16.7160   -6.5840    7.2920 C.ar   53  PHE53      -0.0000
     60  N         21.0050  -11.8020    3.1950 N.3    55  HIS55      -0.1226
     61  CA        21.8260  -11.8210    1.9800 C.3    55  HIS55       0.1752
     62  C         21.6080  -10.4430    1.2930 C.2    55  HIS55       0.2596
     63  O         22.5110   -9.9130    0.6300 O.2    55  HIS55      -0.2718
     64  CB        21.4080  -12.9730    1.0530 C.3    55  HIS55       0.0759
     65  CG        22.0110  -14.2900    1.4270 C.ar   55  HIS55       0.0818
     66  ND1       23.2610  -14.6870    0.9950 N.ar   55  HIS55      -0.2268
     67  CD2       21.5850  -15.2600    2.2700 C.ar   55  HIS55       0.1154
     68  CE1       23.5780  -15.8420    1.5540 C.ar   55  HIS55       0.1986
     69  NE2       22.5780  -16.2100    2.3340 N.ar   55  HIS55      -0.2212
     70  N         20.4140   -9.8650    1.4730 N.am   56  ALA56      -0.1966
     71  CA        20.1110   -8.5590    0.8970 C.3    56  ALA56       0.1728
     72  C         20.9670   -7.4970    1.6090 C.2    56  ALA56       0.2616
     73  O         21.5980   -6.6470    0.9640 O.2    56  ALA56      -0.2715
     74  CB        18.6370   -8.2350    1.0640 C.3    56  ALA56       0.0334
     75  N         20.9780   -7.5360    2.9410 N.am   57  VAL57      -0.1977
     76  CA        21.7850   -6.5930    3.6940 C.3    57  VAL57       0.1596
     77  C         23.2610   -6.7270    3.2530 C.2    57  VAL57       0.2287
     78  O         23.9540   -5.7190    3.0420 O.2    57  VAL57      -0.2864
     79  CB        21.6540   -6.8400    5.2220 C.3    57  VAL57       0.0276
     80  CG1       22.6780   -5.9940    5.9760 C.3    57  VAL57       0.0022
     81  CG2       20.2200   -6.5100    5.6900 C.3    57  VAL57       0.0022
     82  N         24.4160   -8.0720    0.3170 N.3    59  TYR59      -0.1227
     83  CA        24.5400   -7.6710   -1.0770 C.3    59  TYR59       0.1736
     84  C         24.7180   -6.1570   -1.0650 C.2    59  TYR59       0.2595
     85  O         25.5360   -5.5950   -1.7880 O.2    59  TYR59      -0.2718
     86  CB        23.2580   -7.9990   -1.8220 C.3    59  TYR59       0.0548
     87  CG        23.1940   -7.3950   -3.1900 C.ar   59  TYR59      -0.0200
     88  CD1       23.9080   -7.9490   -4.2630 C.ar   59  TYR59      -0.0009
     89  CD2       22.4050   -6.2700   -3.4310 C.ar   59  TYR59      -0.0009
     90  CE1       23.8190   -7.3900   -5.5570 C.ar   59  TYR59       0.0417
     91  CE2       22.3110   -5.7020   -4.7040 C.ar   59  TYR59       0.0417
     92  CZ        23.0090   -6.2620   -5.7550 C.ar   59  TYR59       0.1957
     93  OH        22.8800   -5.7040   -6.9990 O.3    59  TYR59      -0.2866
     94  N         23.9280   -5.5080   -0.2190 N.am   60  LEU60      -0.1980
     95  CA        23.9370   -4.0620   -0.0580 C.3    60  LEU60       0.1596
     96  C         25.3080   -3.5260    0.3760 C.2    60  LEU60       0.2287
     97  O         25.6480   -2.3680    0.1090 O.2    60  LEU60      -0.2864
     98  CB        22.8920   -3.6830    0.9680 C.3    60  LEU60       0.0297
     99  CG        22.0890   -2.4200    0.7240 C.3    60  LEU60       0.0022
    100  CD1       21.1730   -2.6420   -0.4690 C.3    60  LEU60       0.0001
    101  CD2       21.2560   -2.1310    1.9690 C.3    60  LEU60       0.0001
    102  N         28.1420   -5.0400   -0.5320 N.3    62  ARG62      -0.1245
    103  CA        28.9720   -5.1900   -1.7080 C.3    62  ARG62       0.1563
    104  C         28.5870   -4.1830   -2.7960 C.2    62  ARG62       0.2260
    105  O         29.4770   -3.6830   -3.5080 O.2    62  ARG62      -0.2867
    106  CB        28.9200   -6.6470   -2.1900 C.3    62  ARG62       0.0307
    107  CG        29.3290   -7.5590   -1.0370 C.3    62  ARG62       0.0489
    108  CD        29.3840   -9.0490   -1.3000 C.3    62  ARG62       0.2205
    109  NE        28.1160   -9.6810   -1.6310 N.pl3  62  ARG62      -0.0865
    110  CZ        27.6030   -9.7590   -2.8570 C.cat  62  ARG62       0.5346
    111  NH1       28.2460   -9.2370   -3.8950 N.pl3  62  ARG62       0.1354
    112  NH2       26.4490  -10.3890   -3.0520 N.pl3  62  ARG62       0.1354
    113  N         22.9180    0.3420  -10.3580 N.3    72  LEU72      -0.1245
    114  CA        21.7680   -0.5000  -10.1280 C.3    72  LEU72       0.1561
    115  C         20.4530    0.2810  -10.3020 C.2    72  LEU72       0.2260
    116  O         19.5020   -0.2540  -10.8730 O.2    72  LEU72      -0.2867
    117  CB        21.8190   -1.0850   -8.7250 C.3    72  LEU72       0.0270
    118  CG        20.7140   -2.0930   -8.4290 C.3    72  LEU72       0.0019
    119  CD1       20.7410   -3.2550   -9.4570 C.3    72  LEU72       0.0001
    120  CD2       20.9340   -2.5720   -7.0150 C.3    72  LEU72       0.0001
    121  N         25.2650   -9.3330  -11.0040 N.3   205  GLU205     -0.1231
    122  CA        24.8070  -10.5280  -10.3300 C.3   205  GLU205      0.1699
    123  C         23.3260  -10.3810  -10.0670 C.2   205  GLU205      0.2592
    124  O         22.6070  -11.3850  -10.0900 O.2   205  GLU205     -0.2718
    125  CB        25.6260  -10.8460   -9.0640 C.3   205  GLU205      0.0402
    126  CG        25.0450  -10.4760   -7.7510 C.3   205  GLU205      0.1161
    127  CD        26.0360  -10.7370   -6.6120 C.2   205  GLU205      0.3649
    128  OE1       27.1680  -10.1870   -6.6550 O.co2 205  GLU205     -0.2457
    129  OE2       25.6910  -11.4780   -5.6640 O.co2 205  GLU205     -0.2457
    130  N         22.8430   -9.1530   -9.8710 N.am  206  CYS206     -0.1970
    131  CA        21.4140   -8.9820   -9.6650 C.3   206  CYS206      0.1712
    132  C         20.6670   -9.2420  -10.9840 C.2   206  CYS206      0.2296
    133  O         19.7490  -10.0630  -11.0410 O.2   206  CYS206     -0.2864
    134  CB        21.0850   -7.5810   -9.1660 C.3   206  CYS206      0.0983
    135  SG        19.3010   -7.4000   -8.9150 S.3   206  CYS206     -0.0798
    136  N         20.0290  -12.7210  -11.9480 N.3   209  LEU209     -0.1245
    137  CA        18.9020  -13.3380  -11.2700 C.3   209  LEU209      0.1561
    138  C         17.6090  -12.8670  -11.8830 C.2   209  LEU209      0.2260
    139  O         16.5540  -13.4420  -11.6490 O.2   209  LEU209     -0.2867
    140  CB        18.8900  -12.9930   -9.7950 C.3   209  LEU209      0.0270
    141  CG        19.9360  -13.7390   -8.9870 C.3   209  LEU209      0.0019
    142  CD1       20.0180  -13.1280   -7.5860 C.3   209  LEU209      0.0001
    143  CD2       19.5650  -15.2240   -8.9620 C.3   209  LEU209      0.0001
@<TRIPOS>BOND
     1   136   137    1
     2   138   139    2
     3   138   137    1
     4   137   140    1
     5   133   132    2
     6   121   122    1
     7   132   131    1
     8   116   115    2
     9   113   114    1
    10   122   123    1
    11   122   125    1
    12   115   114    1
    13   114   117    1
    14   124   123    2
    15   123   130   am
    16   130   131    1
    17   140   141    1
    18   131   134    1
    19   119   118    1
    20   134   135    1
    21   125   126    1
    22   141   143    1
    23   141   142    1
    24   117   118    1
    25   118   120    1
    26   126   127    1
    27    93    92    1
    28   128   127   ar
    29   127   129   ar
    30    92    90   ar
    31    92    91   ar
    32    90    88   ar
    33    91    89   ar
    34    88    87   ar
    35   111   110    1
    36   105   104    2
    37    89    87   ar
    38    87    86    1
    39   112   110    1
    40   110   109    2
    41   104   103    1
    42   106   103    1
    43   106   107    1
    44    86    83    1
    45    85    84    2
    46   103   102    1
    47   109   108    1
    48   108   107    1
    49    83    84    1
    50    83    82    1
    51    84    94   am
    52    15    13    1
    53    48    46   ar
    54   100    99    1
    55    94    95    1
    56    95    96    1
    57    95    98    1
    58    97    96    2
    59    14    13    1
    60    46    47   ar
    61    46    45    1
    62    13    12    1
    63    63    62    2
    64    99    98    1
    65    99   101    1
    66    71    74    1
    67    71    70    1
    68    71    72    1
    69    73    72    2
    70    66    65   ar
    71    66    68   ar
    72    64    65    1
    73    64    61    1
    74    45    44    1
    75    62    70   am
    76    62    61    1
    77    31    29    1
    78    12     9    1
    79    65    67   ar
    80    68    69   ar
    81    29    28    1
    82    72    75   am
    83    44    41    1
    84     9    10    1
    85     9     8    1
    86    61    60    1
    87    43    42    2
    88    41    42    1
    89    41    40    1
    90    67    69   ar
    91    11    10    2
    92    10    16   am
    93    42    49   am
    94    75    76    1
    95    28    25    1
    96    28    30    1
    97    78    77    2
    98    25    24    1
    99    25    26    1
   100    77    76    1
   101    40    34   am
   102    35    34    2
   103    76    79    1
   104    16    17    1
   105    34    33    1
   106    49    50    1
   107     6     5    1
   108     1     2    1
   109     2     5    1
   110     2     3    1
   111    52    51    2
   112    26    27    2
   113    36    33    1
   114    36    37    1
   115    50    51    1
   116    50    53    1
   117    17    18    1
   118    17    20    1
   119     4     3    2
   120     5     7    1
   121    18    19    2
   122    33    32    1
   123    79    81    1
   124    79    80    1
   125    21    20    1
   126    21    23    1
   127    39    37   ar
   128    37    38   ar
   129    20    22    1
   130    53    54    1
   131    55    54   ar
   132    55    57   ar
   133    54    56   ar
   134    57    59   ar
   135    56    58   ar
   136    59    58   ar
