@<TRIPOS>MOLECULE
tmp/2azrA00.pdb
 113 107 0 0 0
SMALL
GASTEIGER

@<TRIPOS>ATOM
      1  N         38.6850    9.1630    1.7520 N.3    45  TYR45      -0.1241
      2  CA        39.7850    8.7270    0.8910 C.3    45  TYR45       0.1605
      3  C         39.9490    7.2030    0.9350 C.2    45  TYR45       0.2264
      4  O         40.0270    6.6090    2.0080 O.2    45  TYR45      -0.2867
      5  CB        41.1110    9.4100    1.2790 C.3    45  TYR45       0.0534
      6  CG        41.0660   10.9200    1.1830 C.ar   45  TYR45      -0.0201
      7  CD1       41.1400   11.5640   -0.0550 C.ar   45  TYR45      -0.0009
      8  CD2       40.9140   11.7030    2.3290 C.ar   45  TYR45      -0.0009
      9  CE1       41.0750   12.9610   -0.1480 C.ar   45  TYR45       0.0417
     10  CE2       40.8480   13.0960    2.2500 C.ar   45  TYR45       0.0417
     11  CZ        40.9310   13.7160    1.0160 C.ar   45  TYR45       0.1957
     12  OH        40.8660   15.0830    0.9420 O.3    45  TYR45      -0.2866
     13  N         42.5040    5.4240    0.3350 N.3    47  ASP47      -0.1225
     14  CA        43.7780    4.9900    0.8950 C.3    47  ASP47       0.1805
     15  C         44.0390    5.4840    2.3210 C.2    47  ASP47       0.2597
     16  O         45.1640    5.3920    2.7990 O.2    47  ASP47      -0.2718
     17  CB        44.9330    5.4190   -0.0190 C.3    47  ASP47       0.1424
     18  CG        44.8210    4.8380   -1.4280 C.2    47  ASP47       0.3668
     19  OD1       44.1830    3.7670   -1.6050 O.co2  47  ASP47      -0.2456
     20  OD2       45.3770    5.4630   -2.3620 O.co2  47  ASP47      -0.2456
     21  N         43.0220    6.0370    2.9830 N.am   48  VAL48      -0.1980
     22  CA        43.1650    6.4540    4.3900 C.3    48  VAL48       0.1595
     23  C         42.0600    5.8240    5.2400 C.2    48  VAL48       0.2287
     24  O         40.8760    6.1970    5.1460 O.2    48  VAL48      -0.2864
     25  CB        43.2050    8.0040    4.5650 C.3    48  VAL48       0.0276
     26  CG1       43.4150    8.3950    6.0500 C.3    48  VAL48       0.0022
     27  CG2       44.2900    8.6250    3.6940 C.3    48  VAL48       0.0022
     28  N         36.9330   19.6970    1.0500 N.3   119  LYS119     -0.1245
     29  CA        37.7400   18.7370    1.7940 C.3   119  LYS119      0.1561
     30  C         37.0570   18.3380    3.0980 C.2   119  LYS119      0.2260
     31  O         37.5740   17.5140    3.8530 O.2   119  LYS119     -0.2867
     32  CB        39.1280   19.3130    2.0820 C.3   119  LYS119      0.0271
     33  CG        39.8550   19.8260    0.8500 C.3   119  LYS119      0.0035
     34  CD        40.3700   18.6790   -0.0050 C.3   119  LYS119      0.0206
     35  CE        41.6110   19.0840   -0.7830 C.3   119  LYS119      0.1093
     36  NZ        42.6850   19.5950    0.1120 N.3   119  LYS119     -0.1314
     37  N         46.9060   22.2670    2.6020 N.3   180  ASP180     -0.1225
     38  CA        46.9950   20.8140    2.4580 C.3   180  ASP180      0.1805
     39  C         48.3860   20.4390    1.9540 C.2   180  ASP180      0.2597
     40  O         48.9360   21.1160    1.0740 O.2   180  ASP180     -0.2718
     41  CB        45.9310   20.2820    1.4990 C.3   180  ASP180      0.1424
     42  CG        46.0180   20.9180    0.1280 C.2   180  ASP180      0.3668
     43  OD1       45.6340   22.1050    0.0090 O.co2 180  ASP180     -0.2456
     44  OD2       46.4850   20.2400   -0.8220 O.co2 180  ASP180     -0.2456
     45  N         48.9410   19.3680    2.5240 N.am  181  PHE181     -0.1976
     46  CA        50.3200   18.9190    2.2500 C.3   181  PHE181      0.1639
     47  C         51.3560   20.0210    2.4910 C.2   181  PHE181      0.2290
     48  O         52.4810   19.9530    1.9880 O.2   181  PHE181     -0.2864
     49  CB        50.4550   18.3220    0.8350 C.3   181  PHE181      0.0560
     50  CG        49.6490   17.0640    0.6230 C.ar  181  PHE181     -0.0200
     51  CD1       50.1470   15.8260    1.0220 C.ar  181  PHE181     -0.0042
     52  CD2       48.3960   17.1190    0.0190 C.ar  181  PHE181     -0.0042
     53  CE1       49.4050   14.6610    0.8330 C.ar  181  PHE181     -0.0003
     54  CE2       47.6460   15.9570   -0.1740 C.ar  181  PHE181     -0.0003
     55  CZ        48.1550   14.7270    0.2370 C.ar  181  PHE181     -0.0000
     56  N         42.0380   17.2590    9.9260 N.3   214  CYS214     -0.1221
     57  CA        42.0110   18.0370    8.6930 C.3   214  CYS214      0.1808
     58  C         41.0410   17.4340    7.6830 C.2   214  CYS214      0.2602
     59  O         39.8660   17.2240    7.9840 O.2   214  CYS214     -0.2717
     60  CB        43.4120   18.1280    8.0870 C.3   214  CYS214      0.0970
     61  SG        44.4110   16.6350    8.2850 S.3   214  CYS214     -0.0800
     62  N         41.5410   17.1570    6.4830 N.am  215  SER215     -0.1938
     63  CA        40.7510   16.4800    5.4610 C.3   215  SER215      0.2055
     64  C         40.8260   14.9650    5.6200 C.2   215  SER215      0.2642
     65  O         39.8020   14.2930    5.7480 O.2   215  SER215     -0.2714
     66  CB        41.2210   16.8860    4.0630 C.3   215  SER215      0.2130
     67  OG        40.2440   16.5760    3.0860 O.3   215  SER215     -0.2179
     68  N         42.0440   14.4340    5.6100 N.am  216  ALA216     -0.1977
     69  CA        42.2530   12.9950    5.7160 C.3   216  ALA216      0.1597
     70  C         42.4690   12.5750    7.1660 C.2   216  ALA216      0.2287
     71  O         42.2870   11.4100    7.5190 O.2   216  ALA216     -0.2864
     72  CB        43.4320   12.5650    4.8570 C.3   216  ALA216      0.0319
     73  N         45.4510   12.8690    8.8680 N.3   218  ILE218     -0.1231
     74  CA        46.7750   12.2490    9.0430 C.3   218  ILE218      0.1692
     75  C         47.9590   13.2080    8.8740 C.2   218  ILE218      0.2593
     76  O         48.9400   13.1150    9.6090 O.2   218  ILE218     -0.2718
     77  CB        46.9570   10.9760    8.1370 C.3   218  ILE218      0.0266
     78  CG1       46.8280   11.3120    6.6420 C.3   218  ILE218      0.0019
     79  CG2       45.9490    9.8860    8.5110 C.3   218  ILE218      0.0020
     80  CD1       47.1300   10.1220    5.7280 C.3   218  ILE218      0.0001
     81  N         47.8720   14.1290    7.9150 N.am  219  GLY219     -0.1942
     82  CA        49.0070   15.0060    7.5930 C.3   219  GLY219      0.2014
     83  C         49.1670   16.1530    8.5790 C.2   219  GLY219      0.2638
     84  O         49.9840   16.0960    9.5120 O.2   219  GLY219     -0.2714
     85  N         48.3860   17.2050    8.3600 N.am  220  ARG220     -0.1977
     86  CA        48.3080   18.3280    9.3020 C.3   220  ARG220      0.1597
     87  C         47.9340   17.8590   10.7230 C.2   220  ARG220      0.2287
     88  O         48.5190   18.3170   11.7000 O.2   220  ARG220     -0.2864
     89  CB        47.3020   19.3610    8.7810 C.3   220  ARG220      0.0334
     90  CG        47.7890   20.0610    7.4990 C.3   220  ARG220      0.0492
     91  CD        46.7060   20.9140    6.8640 C.3   220  ARG220      0.2205
     92  NE        45.7840   20.1320    6.0310 N.pl3 220  ARG220     -0.0865
     93  CZ        44.7950   20.6600    5.3040 C.cat 220  ARG220      0.5346
     94  NH1       44.5990   21.9800    5.2900 N.pl3 220  ARG220      0.1354
     95  NH2       44.0120   19.8700    4.5680 N.pl3 220  ARG220      0.1354
     96  N         52.6310   13.7820    6.4180 N.3   261  GLN261     -0.1245
     97  CA        52.3800   13.3760    5.0540 C.3   261  GLN261      0.1566
     98  C         53.4780   13.8200    4.1040 C.2   261  GLN261      0.2260
     99  O         53.5670   13.3310    3.0020 O.2   261  GLN261     -0.2867
    100  CB        51.0180   13.8660    4.5800 C.3   261  GLN261      0.0367
    101  CG        49.9140   12.9030    4.8830 C.3   261  GLN261      0.0905
    102  CD        50.0290   11.6420    4.0780 C.2   261  GLN261      0.2608
    103  OE1       49.7380   11.6350    2.8990 O.2   261  GLN261     -0.2717
    104  NE2       50.4630   10.5700    4.7120 N.am  261  GLN261     -0.0878
    105  N         56.6060   18.6650    6.5590 N.3   265  GLN265     -0.1245
    106  CA        55.7720   18.6200    7.7680 C.3   265  GLN265      0.1566
    107  C         56.5640   18.0040    8.9300 C.2   265  GLN265      0.2260
    108  O         56.4160   18.4250   10.0780 O.2   265  GLN265     -0.2867
    109  CB        54.4710   17.8460    7.5190 C.3   265  GLN265      0.0367
    110  CG        53.4170   18.6030    6.7090 C.3   265  GLN265      0.0905
    111  CD        52.1510   17.7920    6.4600 C.2   265  GLN265      0.2608
    112  OE1       52.0870   16.5950    6.7620 O.2   265  GLN265     -0.2717
    113  NE2       51.1280   18.4480    5.9190 N.am  265  GLN265     -0.0878
@<TRIPOS>BOND
     1    20    18   ar
     2    19    18   ar
     3    18    17    1
     4    44    42   ar
     5    35    34    1
     6    35    36    1
     7    54    52   ar
     8    54    55   ar
     9     9     7   ar
    10     9    11   ar
    11     7     6   ar
    12    17    14    1
    13    34    33    1
    14    43    42   ar
    15    52    50   ar
    16    42    41    1
    17    55    53   ar
    18    13    14    1
    19    50    49    1
    20    50    51   ar
    21    53    51   ar
    22    49    46    1
    23    33    32    1
    24     2     3    1
    25     2     5    1
    26     2     1    1
    27    14    15    1
    28     3     4    2
    29    12    11    1
    30    11    10   ar
    31    28    29    1
    32    40    39    2
    33     6     5    1
    34     6     8   ar
    35    41    38    1
    36    29    32    1
    37    29    30    1
    38    39    38    1
    39    39    45   am
    40    48    47    2
    41    46    47    1
    42    46    45    1
    43    10     8   ar
    44    15    16    2
    45    15    21   am
    46    38    37    1
    47   103   102    2
    48    21    22    1
    49    99    98    2
    50    67    66    1
    51    30    31    2
    52    27    25    1
    53    66    63    1
    54   102   104   am
    55   102   101    1
    56    98    97    1
    57    22    25    1
    58    22    23    1
    59    25    26    1
    60    95    93    1
    61   100   101    1
    62   100    97    1
    63    72    69    1
    64    97    96    1
    65    24    23    2
    66    94    93    1
    67    93    92    2
    68    63    64    1
    69    63    62    1
    70    68    64   am
    71    68    69    1
    72    64    65    2
    73    69    70    1
    74    80    78    1
    75   113   111   am
    76    92    91    1
    77   111   110    1
    78   111   112    2
    79    62    58   am
    80   105   106    1
    81    78    77    1
    82   110   109    1
    83    91    90    1
    84    70    71    2
    85    90    89    1
    86   109   106    1
    87    82    81    1
    88    82    83    1
    89    58    59    2
    90    58    57    1
    91   106   107    1
    92    81    75   am
    93    60    61    1
    94    60    57    1
    95    77    79    1
    96    77    74    1
    97    85    83   am
    98    85    86    1
    99    83    84    2
   100    57    56    1
   101    89    86    1
   102    73    74    1
   103    75    74    1
   104    75    76    2
   105   107   108    2
   106    86    87    1
   107    87    88    2
