@<TRIPOS>MOLECULE
tmp/2aztB00.pdb
 113 108 0 0 0
SMALL
GASTEIGER

@<TRIPOS>ATOM
      1  N         53.6530  -35.5870   98.8100 N.3    29  TYR29      -0.1227
      2  CA        54.2200  -35.0890  100.0720 C.3    29  TYR29       0.1736
      3  C         54.0980  -33.5640  100.1690 C.2    29  TYR29       0.2595
      4  O         53.5550  -33.0250  101.1460 O.2    29  TYR29      -0.2718
      5  CB        55.6910  -35.4870  100.2300 C.3    29  TYR29       0.0548
      6  CG        56.2050  -35.2210  101.6370 C.ar   29  TYR29      -0.0200
      7  CD1       55.6200  -35.8910  102.7330 C.ar   29  TYR29      -0.0009
      8  CD2       57.2490  -34.2890  101.8910 C.ar   29  TYR29      -0.0009
      9  CE1       56.0550  -35.6760  104.0440 C.ar   29  TYR29       0.0417
     10  CE2       57.6930  -34.0470  103.2220 C.ar   29  TYR29       0.0417
     11  CZ        57.0740  -34.7540  104.2870 C.ar   29  TYR29       0.1957
     12  OH        57.4090  -34.5870  105.6140 O.3    29  TYR29      -0.2866
     13  N         54.5760  -32.8920   99.1290 N.am   30  ILE30      -0.1980
     14  CA        54.6840  -31.4380   99.0840 C.3    30  ILE30       0.1595
     15  C         53.3220  -30.6720   98.9960 C.2    30  ILE30       0.2287
     16  O         53.2790  -29.4490   99.1700 O.2    30  ILE30      -0.2864
     17  CB        55.7740  -31.0780   97.9780 C.3    30  ILE30       0.0276
     18  CG1       57.1620  -30.8240   98.6070 C.3    30  ILE30       0.0022
     19  CG2       55.3070  -30.0000   96.9600 C.3    30  ILE30       0.0022
     20  CD1       57.3160  -31.1500  100.0950 C.3    30  ILE30       0.0001
     21  N         58.8170  -24.0360  109.2740 N.3   133  GLY133     -0.1210
     22  CA        58.6500  -25.3330  108.6490 C.3   133  GLY133      0.1956
     23  C         59.9210  -26.1420  108.5220 C.2   133  GLY133      0.2611
     24  O         59.8700  -27.2480  107.9130 O.2   133  GLY133     -0.2717
     25  N         61.0280  -25.6160  109.1000 N.am  134  ASN134     -0.1974
     26  CA        62.3260  -26.2820  109.2030 C.3   134  ASN134      0.1688
     27  C         63.0990  -26.1980  107.9090 C.2   134  ASN134      0.2292
     28  O         63.9040  -27.0650  107.6740 O.2   134  ASN134     -0.2864
     29  CB        62.1700  -27.7740  109.5960 C.3   134  ASN134      0.1181
     30  CG        63.5000  -28.4380  109.9970 C.2   134  ASN134      0.2629
     31  OD1       64.3280  -27.8110  110.7210 O.2   134  ASN134     -0.2716
     32  ND2       63.6980  -29.7320  109.5810 N.am  134  ASN134     -0.0877
     33  N         67.3140  -27.4090  105.3640 N.3   138  HIS138     -0.1241
     34  CA        67.5740  -28.0080  104.0410 C.3   138  HIS138      0.1621
     35  C         68.9500  -27.6910  103.5040 C.2   138  HIS138      0.2264
     36  O         69.4180  -28.3360  102.5960 O.2   138  HIS138     -0.2867
     37  CB        66.5160  -27.6700  102.9700 C.3   138  HIS138      0.0745
     38  CG        65.1390  -28.1380  103.3030 C.ar  138  HIS138      0.0817
     39  ND1       64.0250  -27.3790  103.0730 N.ar  138  HIS138     -0.2268
     40  CD2       64.6930  -29.3010  103.8250 C.ar  138  HIS138      0.1154
     41  CE1       62.9540  -28.0200  103.5040 C.ar  138  HIS138      0.1986
     42  NE2       63.3300  -29.2010  103.9460 N.ar  138  HIS138     -0.2212
     43  N         63.5110  -28.2360  113.5590 N.3   171  ARG171     -0.1245
     44  CA        63.0970  -29.4070  114.2600 C.3   171  ARG171      0.1563
     45  C         64.1150  -29.6570  115.4280 C.2   171  ARG171      0.2260
     46  O         65.2580  -29.2110  115.3760 O.2   171  ARG171     -0.2867
     47  CB        63.0700  -30.5720  113.2970 C.3   171  ARG171      0.0307
     48  CG        61.8980  -31.3280  113.5600 C.3   171  ARG171      0.0489
     49  CD        61.5340  -32.4110  112.6910 C.3   171  ARG171      0.2205
     50  NE        61.2240  -33.6110  113.4700 N.pl3 171  ARG171     -0.0865
     51  CZ        60.8780  -34.7210  112.8840 C.cat 171  ARG171      0.5346
     52  NH1       60.8160  -34.7770  111.5570 N.pl3 171  ARG171      0.1354
     53  NH2       60.5890  -35.7660  113.6000 N.pl3 171  ARG171      0.1354
     54  N         54.7220  -32.6980  112.5340 N.3   187  ASN187     -0.1240
     55  CA        54.6140  -31.3350  112.0950 C.3   187  ASN187      0.1653
     56  C         53.5850  -30.5530  112.9530 C.2   187  ASN187      0.2266
     57  O         52.4400  -30.9090  112.9840 O.2   187  ASN187     -0.2867
     58  CB        54.2120  -31.2820  110.6350 C.3   187  ASN187      0.1155
     59  CG        54.5700  -29.9380  109.9840 C.2   187  ASN187      0.2627
     60  OD1       53.9860  -28.8480  110.2960 O.2   187  ASN187     -0.2716
     61  ND2       55.5590  -29.9980  109.0980 N.am  187  ASN187     -0.0877
     62  N         66.2120  -38.9620  105.5360 N.3   214  LEU214     -0.1245
     63  CA        64.9320  -39.6200  105.8680 C.3   214  LEU214      0.1561
     64  C         64.4290  -40.2590  104.6260 C.2   214  LEU214      0.2260
     65  O         64.3050  -39.6250  103.6130 O.2   214  LEU214     -0.2867
     66  CB        63.9190  -38.5830  106.3410 C.3   214  LEU214      0.0270
     67  CG        64.3220  -37.6830  107.5270 C.3   214  LEU214      0.0019
     68  CD1       63.1870  -37.1410  108.2370 C.3   214  LEU214      0.0001
     69  CD2       65.0880  -38.4360  108.5750 C.3   214  LEU214      0.0001
     70  N         61.2990  -41.9430  103.4560 N.3   216  TYR216     -0.1241
     71  CA        59.8510  -42.1370  103.5240 C.3   216  TYR216      0.1605
     72  C         59.2510  -43.2750  102.6770 C.2   216  TYR216      0.2264
     73  O         59.5030  -43.3730  101.4850 O.2   216  TYR216     -0.2867
     74  CB        59.1820  -40.8420  103.0730 C.3   216  TYR216      0.0534
     75  CG        59.3470  -39.7710  104.0900 C.ar  216  TYR216     -0.0201
     76  CD1       60.4100  -38.8670  104.0260 C.ar  216  TYR216     -0.0009
     77  CD2       58.4430  -39.6560  105.1590 C.ar  216  TYR216     -0.0009
     78  CE1       60.5420  -37.8490  104.9720 C.ar  216  TYR216      0.0417
     79  CE2       58.5750  -38.6600  106.1210 C.ar  216  TYR216      0.0417
     80  CZ        59.6180  -37.7660  106.0320 C.ar  216  TYR216      0.1957
     81  OH        59.7310  -36.7500  107.0130 O.3   216  TYR216     -0.2866
     82  N         64.8210  -37.3640  101.5150 N.3   226  LEU226     -0.1245
     83  CA        64.9670  -35.9400  101.8620 C.3   226  LEU226      0.1561
     84  C         65.9860  -35.8410  102.9590 C.2   226  LEU226      0.2260
     85  O         66.0350  -36.7150  103.8450 O.2   226  LEU226     -0.2867
     86  CB        63.6870  -35.4170  102.3940 C.3   226  LEU226      0.0270
     87  CG        62.6750  -35.0510  101.3010 C.3   226  LEU226      0.0019
     88  CD1       61.3140  -34.5930  101.9280 C.3   226  LEU226      0.0001
     89  CD2       63.2930  -34.0430  100.2210 C.3   226  LEU226      0.0001
     90  N         68.7850  -33.3230  105.6000 N.3   228  TYR228     -0.1241
     91  CA        68.7070  -32.2150  106.5010 C.3   228  TYR228      0.1605
     92  C         70.0250  -31.9670  107.1880 C.2   228  TYR228      0.2264
     93  O         70.8000  -32.9240  107.4470 O.2   228  TYR228     -0.2867
     94  CB        67.6890  -32.5690  107.5460 C.3   228  TYR228      0.0534
     95  CG        66.2720  -32.7170  106.9850 C.ar  228  TYR228     -0.0201
     96  CD1       65.8150  -33.9320  106.5780 C.ar  228  TYR228     -0.0009
     97  CD2       65.3960  -31.6040  106.8480 C.ar  228  TYR228     -0.0009
     98  CE1       64.5880  -34.0480  106.0690 C.ar  228  TYR228      0.0417
     99  CE2       64.1720  -31.7510  106.3680 C.ar  228  TYR228      0.0417
    100  CZ        63.7800  -32.9680  105.9800 C.ar  228  TYR228      0.1957
    101  OH        62.5480  -33.1700  105.4480 O.3   228  TYR228     -0.2866
    102  N         59.6800  -28.8000  117.7650 N.3   269  TYR269     -0.1241
    103  CA        60.3830  -27.7680  117.0340 C.3   269  TYR269      0.1605
    104  C         60.7610  -26.6950  118.0120 C.2   269  TYR269      0.2264
    105  O         59.9700  -26.4230  118.9280 O.2   269  TYR269     -0.2867
    106  CB        59.4520  -27.1210  116.0260 C.3   269  TYR269      0.0534
    107  CG        59.1250  -28.0150  114.8910 C.ar  269  TYR269     -0.0201
    108  CD1       58.2020  -29.0590  115.0520 C.ar  269  TYR269     -0.0009
    109  CD2       59.7690  -27.8710  113.6560 C.ar  269  TYR269     -0.0009
    110  CE1       57.9040  -29.8860  114.0450 C.ar  269  TYR269      0.0417
    111  CE2       59.4650  -28.6980  112.6430 C.ar  269  TYR269      0.0417
    112  CZ        58.5190  -29.7080  112.8360 C.ar  269  TYR269      0.1957
    113  OH        58.2030  -30.5670  111.7880 O.3   269  TYR269     -0.2866
@<TRIPOS>BOND
     1    19    17    1
     2    17    18    1
     3    17    14    1
     4    18    20    1
     5     1     2    1
     6    15    14    1
     7    15    16    2
     8    14    13    1
     9    13     3   am
    10     2     3    1
    11     2     5    1
    12     3     4    2
    13    89    87    1
    14     5     6    1
    15    87    88    1
    16    87    86    1
    17    73    72    2
    18    82    83    1
    19     6     8   ar
    20     6     7   ar
    21    83    86    1
    22    83    84    1
    23     8    10   ar
    24    36    35    2
    25    72    71    1
    26     7     9   ar
    27    84    85    2
    28    37    38    1
    29    37    34    1
    30    74    71    1
    31    74    75    1
    32    39    38   ar
    33    39    41   ar
    34    10    11   ar
    35    38    40   ar
    36    70    71    1
    37    41    42   ar
    38    35    34    1
    39    65    64    2
    40    40    42   ar
    41    76    75   ar
    42    76    78   ar
    43    34    33    1
    44     9    11   ar
    45    75    77   ar
    46    11    12    1
    47    64    63    1
    48    78    80   ar
    49    77    79   ar
    50   101   100    1
    51    62    63    1
    52    90    91    1
    53    63    66    1
    54   100    98   ar
    55   100    99   ar
    56    80    79   ar
    57    80    81    1
    58    98    96   ar
    59    66    67    1
    60    99    97   ar
    61    91    92    1
    62    91    94    1
    63    96    95   ar
    64    97    95   ar
    65    95    94    1
    66    92    93    2
    67    67    68    1
    68    67    69    1
    69    28    27    2
    70    27    26    1
    71    24    23    2
    72    23    22    1
    73    23    25   am
    74    22    21    1
    75    61    59   am
    76    25    26    1
    77    26    29    1
    78    32    30   am
    79    29    30    1
    80    59    60    2
    81    59    58    1
    82    30    31    2
    83    58    55    1
    84    52    51    1
    85   113   112    1
    86    55    54    1
    87    55    56    1
    88   111   112   ar
    89   111   109   ar
    90    49    50    1
    91    49    48    1
    92   112   110   ar
    93    51    50    2
    94    51    53    1
    95    56    57    2
    96    47    48    1
    97    47    44    1
    98    43    44    1
    99   109   107   ar
   100   110   108   ar
   101    44    45    1
   102   107   108   ar
   103   107   106    1
   104    46    45    2
   105   106   103    1
   106   103   102    1
   107   103   104    1
   108   104   105    2
