@<TRIPOS>MOLECULE
tmp/2azwA00.pdb
 97 95 0 0 0
SMALL
GASTEIGER

@<TRIPOS>ATOM
      1  N         23.1040   29.4340    3.2800 N.3    18  TYR18      -0.1241
      2  CA        22.0190   28.8120    4.0090 C.3    18  TYR18       0.1605
      3  C         21.9880   29.3660    5.4350 C.2    18  TYR18       0.2264
      4  O         23.0210   29.7610    5.9710 O.2    18  TYR18      -0.2867
      5  CB        22.1470   27.2870    3.9740 C.3    18  TYR18       0.0534
      6  CG        22.1440   26.7460    2.5570 C.ar   18  TYR18      -0.0201
      7  CD1       20.9460   26.5380    1.8690 C.ar   18  TYR18      -0.0009
      8  CD2       23.3390   26.4710    1.8960 C.ar   18  TYR18      -0.0009
      9  CE1       20.9440   26.0490    0.5510 C.ar   18  TYR18       0.0417
     10  CE2       23.3480   25.9820    0.5900 C.ar   18  TYR18       0.0417
     11  CZ        22.1510   25.7780   -0.0730 C.ar   18  TYR18       0.1957
     12  OH        22.1590   25.2930   -1.3630 O.3    18  TYR18      -0.2866
     13  N         24.6830   29.4160    8.2640 N.3    49  ILE49      -0.1245
     14  CA        25.3720   28.1620    8.5420 C.3    49  ILE49       0.1561
     15  C         26.7990   28.2930    8.0120 C.2    49  ILE49       0.2260
     16  O         27.0000   28.7850    6.8980 O.2    49  ILE49      -0.2867
     17  CB        24.6040   26.9810    7.8950 C.3    49  ILE49       0.0252
     18  CG1       23.1850   26.9020    8.4860 C.3    49  ILE49       0.0019
     19  CG2       25.3620   25.6630    8.0700 C.3    49  ILE49       0.0019
     20  CD1       22.1810   26.1620    7.6200 C.3    49  ILE49       0.0001
     21  N         31.2350   23.1810    7.8830 N.3    52  THR52      -0.1203
     22  CA        30.5060   21.9560    7.5610 C.3    52  THR52       0.1994
     23  C         29.3360   21.6920    8.5320 C.2    52  THR52       0.2618
     24  O         28.8660   20.5570    8.6570 O.2    52  THR52      -0.2717
     25  CB        31.4580   20.7370    7.4940 C.3    52  THR52       0.1784
     26  OG1       32.3020   20.7130    8.6560 O.3    52  THR52      -0.2211
     27  CG2       32.3400   20.8170    6.2510 C.3    52  THR52       0.0376
     28  N         28.8760   22.7500    9.2120 N.am   53  GLU53      -0.1965
     29  CA        27.7670   22.6550   10.1680 C.3    53  GLU53       0.1733
     30  C         26.4710   22.1520    9.5540 C.2    53  GLU53       0.2617
     31  O         26.1270   22.5030    8.4190 O.2    53  GLU53      -0.2715
     32  CB        27.4540   24.0320   10.7800 C.3    53  GLU53       0.0429
     33  CG        28.5050   24.5510   11.7550 C.3    53  GLU53       0.1163
     34  CD        28.2240   25.9840   12.1940 C.2    53  GLU53       0.3649
     35  OE1       27.3700   26.6640   11.5760 O.co2  53  GLU53      -0.2457
     36  OE2       28.8610   26.4310   13.1700 O.co2  53  GLU53      -0.2457
     37  N         25.7280   21.3710   10.3300 N.am   54  THR54      -0.1937
     38  CA        24.3210   21.1270   10.0310 C.3    54  THR54       0.2028
     39  C         23.4960   22.3630   10.4240 C.2    54  THR54       0.2642
     40  O         23.9860   23.2570   11.1330 O.2    54  THR54      -0.2714
     41  CB        23.7810   19.9050   10.8080 C.3    54  THR54       0.1808
     42  OG1       23.7780   20.2040   12.2030 O.3    54  THR54      -0.2208
     43  CG2       24.6140   18.6550   10.5440 C.3    54  THR54       0.0379
     44  N         22.2460   22.4190    9.9650 N.am   55  LYS55      -0.1963
     45  CA        21.3360   23.4900   10.3640 C.3    55  LYS55       0.1728
     46  C         21.2220   23.5960   11.8950 C.2    55  LYS55       0.2616
     47  O         21.2810   24.6880   12.4560 O.2    55  LYS55      -0.2715
     48  CB        19.9460   23.2940    9.7440 C.3    55  LYS55       0.0311
     49  CG        19.9500   23.0790    8.2390 C.3    55  LYS55       0.0038
     50  CD        18.5750   22.6400    7.7420 C.3    55  LYS55       0.0206
     51  CE        18.5660   22.4600    6.2320 C.3    55  LYS55       0.1093
     52  NZ        19.4900   21.3690    5.7820 N.3    55  LYS55      -0.1314
     53  N         21.0770   22.4510   12.5600 N.am   56  GLU56      -0.1977
     54  CA        20.9360   22.4140   14.0150 C.3    56  GLU56       0.1602
     55  C         22.2140   22.8800   14.7270 C.2    56  GLU56       0.2287
     56  O         22.1330   23.5980   15.7290 O.2    56  GLU56      -0.2864
     57  CB        20.5170   21.0130   14.4950 C.3    56  GLU56       0.0415
     58  CG        19.1590   20.5330   13.9550 C.3    56  GLU56       0.1163
     59  CD        19.2190   19.8550   12.5540 C.2    56  GLU56       0.3649
     60  OE1       20.3160   19.7030   11.9450 O.co2  56  GLU56      -0.2457
     61  OE2       18.1360   19.4800   12.0410 O.co2  56  GLU56      -0.2457
     62  N         10.3120   21.5670   13.5690 N.3    76  TYR76      -0.1241
     63  CA        10.7760   22.2040   12.3450 C.3    76  TYR76       0.1605
     64  C          9.5910   22.8690   11.6390 C.2    76  TYR76       0.2264
     65  O          8.7070   22.1860   11.1220 O.2    76  TYR76      -0.2867
     66  CB        11.4480   21.1810   11.4160 C.3    76  TYR76       0.0534
     67  CG        11.8250   21.7530   10.0640 C.ar   76  TYR76      -0.0201
     68  CD1       12.6280   22.8950    9.9700 C.ar   76  TYR76      -0.0009
     69  CD2       11.3760   21.1580    8.8790 C.ar   76  TYR76      -0.0009
     70  CE1       12.9680   23.4370    8.7380 C.ar   76  TYR76       0.0417
     71  CE2       11.7160   21.6920    7.6290 C.ar   76  TYR76       0.0417
     72  CZ        12.5160   22.8290    7.5720 C.ar   76  TYR76       0.1957
     73  OH        12.8620   23.3700    6.3620 O.3    76  TYR76      -0.2866
     74  N         15.9630   28.0090    7.4150 N.3    98  TYR98      -0.1241
     75  CA        15.2880   26.8520    7.9960 C.3    98  TYR98       0.1605
     76  C         14.9140   27.2110    9.4280 C.2    98  TYR98       0.2264
     77  O         15.7770   27.5630   10.2370 O.2    98  TYR98      -0.2867
     78  CB        16.1690   25.5960    7.8730 C.3    98  TYR98       0.0534
     79  CG        16.6300   25.3980    6.4460 C.ar   98  TYR98      -0.0201
     80  CD1       15.7760   24.8360    5.4810 C.ar   98  TYR98      -0.0009
     81  CD2       17.8960   25.8210    6.0380 C.ar   98  TYR98      -0.0009
     82  CE1       16.1910   24.6770    4.1490 C.ar   98  TYR98       0.0417
     83  CE2       18.3170   25.6680    4.7090 C.ar   98  TYR98       0.0417
     84  CZ        17.4600   25.0970    3.7750 C.ar   98  TYR98       0.1957
     85  OH        17.8900   24.9460    2.4700 O.3    98  TYR98      -0.2866
     86  N         12.9330   26.8220   13.1520 N.3   100  TYR100     -0.1241
     87  CA        12.6720   25.8290   14.1910 C.3   100  TYR100      0.1605
     88  C         12.0600   26.4830   15.4250 C.2   100  TYR100      0.2264
     89  O         12.0330   27.7110   15.5450 O.2   100  TYR100     -0.2867
     90  CB        13.9810   25.1280   14.6070 C.3   100  TYR100      0.0534
     91  CG        14.6750   24.3370   13.5120 C.ar  100  TYR100     -0.0201
     92  CD1       14.5630   22.9480   13.4530 C.ar  100  TYR100     -0.0009
     93  CD2       15.4470   24.9760   12.5440 C.ar  100  TYR100     -0.0009
     94  CE1       15.1970   22.2100   12.4560 C.ar  100  TYR100      0.0417
     95  CE2       16.0850   24.2490   11.5380 C.ar  100  TYR100      0.0417
     96  CZ        15.9580   22.8730   11.5060 C.ar  100  TYR100      0.1957
     97  OH        16.5930   22.1770   10.5080 O.3   100  TYR100     -0.2866
@<TRIPOS>BOND
     1    12    11    1
     2    11     9   ar
     3    11    10   ar
     4     9     7   ar
     5    10     8   ar
     6     7     6   ar
     7     8     6   ar
     8    85    84    1
     9     6     5    1
    10     1     2    1
    11    84    82   ar
    12    84    83   ar
    13     5     2    1
    14     2     3    1
    15    82    80   ar
    16    83    81   ar
    17     3     4    2
    18    80    79   ar
    19    52    51    1
    20    81    79   ar
    21    51    50    1
    22    27    25    1
    23    73    72    1
    24    79    78    1
    25    16    15    2
    26    74    75    1
    27    25    22    1
    28    25    26    1
    29    22    21    1
    30    22    23    1
    31    72    71   ar
    32    72    70   ar
    33    20    18    1
    34    71    69   ar
    35    50    49    1
    36    78    75    1
    37    17    19    1
    38    17    18    1
    39    17    14    1
    40    75    76    1
    41    15    14    1
    42    49    48    1
    43    13    14    1
    44    31    30    2
    45    23    24    2
    46    23    28   am
    47    70    68   ar
    48    69    67   ar
    49    28    29    1
    50    76    77    2
    51    30    29    1
    52    30    37   am
    53    48    45    1
    54    44    45    1
    55    44    39   am
    56    68    67   ar
    57    38    37    1
    58    38    39    1
    59    38    41    1
    60    67    66    1
    61    29    32    1
    62    45    46    1
    63    39    40    2
    64    97    96    1
    65    43    41    1
    66    32    33    1
    67    41    42    1
    68    65    64    2
    69    66    63    1
    70    96    95   ar
    71    96    94   ar
    72    95    93   ar
    73    35    34   ar
    74    64    63    1
    75    33    34    1
    76    46    47    2
    77    46    53   am
    78    60    59   ar
    79    61    59   ar
    80    34    36   ar
    81    63    62    1
    82    94    92   ar
    83    93    91   ar
    84    59    58    1
    85    53    54    1
    86    86    87    1
    87    92    91   ar
    88    91    90    1
    89    58    57    1
    90    54    57    1
    91    54    55    1
    92    87    90    1
    93    87    88    1
    94    55    56    2
    95    88    89    2
