@<TRIPOS>MOLECULE
tmp/2azxC01.pdb
 142 135 0 0 0
SMALL
GASTEIGER

@<TRIPOS>ATOM
      1  N         35.9440    6.4100  -37.1620 N.3    48  HIS48      -0.1226
      2  CA        37.2830    6.3270  -36.5940 C.3    48  HIS48       0.1752
      3  C         37.8750    4.9600  -36.9860 C.2    48  HIS48       0.2596
      4  O         37.1470    3.9780  -37.0990 O.2    48  HIS48      -0.2718
      5  CB        37.1450    6.4780  -35.0800 C.3    48  HIS48       0.0759
      6  CG        38.4420    6.6180  -34.3530 C.ar   48  HIS48       0.0818
      7  ND1       39.3580    5.5930  -34.2550 N.ar   48  HIS48      -0.2268
      8  CD2       38.9500    7.6490  -33.6370 C.ar   48  HIS48       0.1154
      9  CE1       40.3730    5.9860  -33.5080 C.ar   48  HIS48       0.1986
     10  NE2       40.1510    7.2310  -33.1200 N.ar   48  HIS48      -0.2212
     11  N         39.1840    4.8790  -37.1980 N.am   49  HIS49      -0.1961
     12  CA        39.7680    3.6010  -37.6080 C.3    49  HIS49       0.1787
     13  C         39.5190    2.4090  -36.6760 C.2    49  HIS49       0.2620
     14  O         39.5140    1.2620  -37.1270 O.2    49  HIS49      -0.2715
     15  CB        41.2770    3.7390  -37.9040 C.3    49  HIS49       0.0785
     16  CG        42.0770    4.3400  -36.7920 C.ar   49  HIS49       0.0821
     17  ND1       41.9260    5.6510  -36.3860 N.ar   49  HIS49      -0.2267
     18  CD2       43.0620    3.8190  -36.0250 C.ar   49  HIS49       0.1154
     19  CE1       42.7870    5.9110  -35.4170 C.ar   49  HIS49       0.1986
     20  NE2       43.4880    4.8160  -35.1790 N.ar   49  HIS49      -0.2212
     21  N         39.3130    2.6510  -35.3870 N.am   50  PHE50      -0.1974
     22  CA        39.0420    1.5300  -34.4990 C.3    50  PHE50       0.1639
     23  C         37.7750    0.8170  -34.9750 C.2    50  PHE50       0.2290
     24  O         37.6310   -0.3890  -34.7900 O.2    50  PHE50      -0.2864
     25  CB        38.8390    1.9970  -33.0610 C.3    50  PHE50       0.0560
     26  CG        40.0910    2.4600  -32.3840 C.ar   50  PHE50      -0.0200
     27  CD1       41.3250    2.3380  -33.0030 C.ar   50  PHE50      -0.0042
     28  CD2       40.0330    3.0020  -31.1050 C.ar   50  PHE50      -0.0042
     29  CE1       42.4800    2.7460  -32.3580 C.ar   50  PHE50      -0.0003
     30  CE2       41.1810    3.4110  -30.4520 C.ar   50  PHE50      -0.0003
     31  CZ        42.4080    3.2840  -31.0790 C.ar   50  PHE50      -0.0000
     32  N         50.0970    2.0900  -23.3510 N.3    88  VAL88      -0.1245
     33  CA        49.3330    2.3520  -24.5610 C.3    88  VAL88       0.1561
     34  C         48.0420    1.5480  -24.6500 C.2    88  VAL88       0.2260
     35  O         47.0340    2.0340  -25.1730 O.2    88  VAL88      -0.2867
     36  CB        50.1880    2.0900  -25.8110 C.3    88  VAL88       0.0252
     37  CG1       51.1280    3.2580  -26.0520 C.3    88  VAL88       0.0019
     38  CG2       50.9970    0.8290  -25.6160 C.3    88  VAL88       0.0019
     39  N         45.1150    3.0600  -23.2640 N.3    91  LEU91      -0.1245
     40  CA        44.6310    4.2080  -24.0040 C.3    91  LEU91       0.1561
     41  C         43.4950    3.9600  -24.9890 C.2    91  LEU91       0.2260
     42  O         42.6020    4.7980  -25.1200 O.2    91  LEU91      -0.2867
     43  CB        45.7930    4.8680  -24.7500 C.3    91  LEU91       0.0270
     44  CG        46.5650    5.9540  -24.0040 C.3    91  LEU91       0.0019
     45  CD1       47.7710    6.3600  -24.8230 C.3    91  LEU91       0.0001
     46  CD2       45.6560    7.1490  -23.7390 C.3    91  LEU91       0.0001
     47  N         40.9230    6.7970  -26.1530 N.3    95  ILE95      -0.1245
     48  CA        41.1460    7.4550  -27.4290 C.3    95  ILE95       0.1561
     49  C         39.8320    7.4760  -28.1870 C.2    95  ILE95       0.2260
     50  O         39.4320    8.5080  -28.7360 O.2    95  ILE95      -0.2867
     51  CB        42.2020    6.7090  -28.2570 C.3    95  ILE95       0.0252
     52  CG1       43.5800    6.9280  -27.6290 C.3    95  ILE95       0.0019
     53  CG2       42.1680    7.1750  -29.7170 C.3    95  ILE95       0.0019
     54  CD1       44.6660    6.0560  -28.2130 C.3    95  ILE95       0.0001
     55  N         44.2470   13.2700  -23.0430 N.3   141  CYS141     -0.1235
     56  CA        43.7140   12.7000  -24.2790 C.3   141  CYS141      0.1677
     57  C         42.8790   13.7080  -25.0450 C.2   141  CYS141      0.2270
     58  O         42.4240   13.4300  -26.1520 O.2   141  CYS141     -0.2867
     59  CB        42.8650   11.4670  -23.9940 C.3   141  CYS141      0.0956
     60  SG        43.8030   10.0420  -23.4300 S.3   141  CYS141     -0.0801
     61  N         53.3770    5.0460  -20.9600 N.3   273  LEU273     -0.1245
     62  CA        53.1790    6.3900  -21.4760 C.3   273  LEU273      0.1561
     63  C         54.2930    7.3320  -21.0490 C.2   273  LEU273      0.2260
     64  O         54.4150    8.4430  -21.5670 O.2   273  LEU273     -0.2867
     65  CB        51.8060    6.9110  -21.0410 C.3   273  LEU273      0.0270
     66  CG        50.6600    6.7180  -22.0450 C.3   273  LEU273      0.0019
     67  CD1       50.9060    5.5180  -22.9320 C.3   273  LEU273      0.0001
     68  CD2       49.3610    6.5640  -21.2930 C.3   273  LEU273      0.0001
     69  N         47.5510    1.9950  -34.2150 N.3   317  PHE317     -0.1241
     70  CA        48.0200    3.3730  -34.3360 C.3   317  PHE317      0.1605
     71  C         48.3650    4.0460  -35.6750 C.2   317  PHE317      0.2264
     72  O         48.4740    5.2750  -35.7150 O.2   317  PHE317     -0.2867
     73  CB        49.1850    3.5660  -33.3700 C.3   317  PHE317      0.0534
     74  CG        48.8550    3.2040  -31.9530 C.ar  317  PHE317     -0.0203
     75  CD1       47.7840    3.7970  -31.3060 C.ar  317  PHE317     -0.0042
     76  CD2       49.6240    2.2720  -31.2620 C.ar  317  PHE317     -0.0042
     77  CE1       47.4830    3.4700  -29.9940 C.ar  317  PHE317     -0.0003
     78  CE2       49.3310    1.9350  -29.9440 C.ar  317  PHE317     -0.0003
     79  CZ        48.2600    2.5340  -29.3090 C.ar  317  PHE317     -0.0000
     80  N         47.3180    5.7120  -38.7220 N.3   319  GLU319     -0.1245
     81  CA        46.0870    6.2740  -39.2870 C.3   319  GLU319      0.1567
     82  C         45.8150    5.9080  -40.7480 C.2   319  GLU319      0.2260
     83  O         44.8140    5.2560  -41.0420 O.2   319  GLU319     -0.2867
     84  CB        46.0990    7.7940  -39.1560 C.3   319  GLU319      0.0388
     85  CG        46.5360    8.3040  -37.7860 C.3   319  GLU319      0.1160
     86  CD        45.3910    8.4570  -36.7900 C.2   319  GLU319      0.3649
     87  OE1       44.4690    9.2680  -37.0540 O.co2 319  GLU319     -0.2457
     88  OE2       45.4240    7.7730  -35.7380 O.co2 319  GLU319     -0.2457
     89  N         55.1160    5.1770  -33.0060 N.3   348  LEU348     -0.1245
     90  CA        54.9230    5.1500  -31.5650 C.3   348  LEU348      0.1561
     91  C         55.5710    6.3390  -30.8700 C.2   348  LEU348      0.2260
     92  O         54.9050    7.0870  -30.1510 O.2   348  LEU348     -0.2867
     93  CB        55.4800    3.8640  -30.9630 C.3   348  LEU348      0.0270
     94  CG        54.5910    2.6270  -31.0240 C.3   348  LEU348      0.0019
     95  CD1       55.2390    1.4950  -30.2400 C.3   348  LEU348      0.0001
     96  CD2       53.2290    2.9620  -30.4500 C.3   348  LEU348      0.0001
     97  N         53.7230    9.6560  -31.1100 N.3   351  LEU351     -0.1231
     98  CA        52.4360    9.6230  -30.4440 C.3   351  LEU351      0.1693
     99  C         52.6780    9.7210  -28.9540 C.2   351  LEU351      0.2591
    100  O         52.2100   10.6550  -28.3080 O.2   351  LEU351     -0.2718
    101  CB        51.6940    8.3370  -30.7970 C.3   351  LEU351      0.0284
    102  CG        50.9380    8.4680  -32.1240 C.3   351  LEU351      0.0019
    103  CD1       50.3660    7.1280  -32.5810 C.3   351  LEU351      0.0001
    104  CD2       49.8320    9.4990  -31.9280 C.3   351  LEU351      0.0001
    105  N         53.4380    8.7760  -28.4130 N.am  352  ILE352     -0.1980
    106  CA        53.7480    8.7860  -26.9930 C.3   352  ILE352      0.1595
    107  C         54.4050   10.0940  -26.5680 C.2   352  ILE352      0.2287
    108  O         54.2240   10.5500  -25.4400 O.2   352  ILE352     -0.2864
    109  CB        54.6750    7.6300  -26.6090 C.3   352  ILE352      0.0276
    110  CG1       53.9660    6.3030  -26.8580 C.3   352  ILE352      0.0022
    111  CG2       55.0790    7.7520  -25.1490 C.3   352  ILE352      0.0022
    112  CD1       54.6520    5.1110  -26.2360 C.3   352  ILE352      0.0001
    113  N         53.8480   13.1230  -27.9080 N.3   354  GLU354     -0.1231
    114  CA        52.8000   14.1300  -27.8400 C.3   354  GLU354      0.1699
    115  C         52.0110   13.9870  -26.5590 C.2   354  GLU354      0.2592
    116  O         51.6200   14.9820  -25.9420 O.2   354  GLU354     -0.2718
    117  CB        51.8150   13.9830  -28.9890 C.3   354  GLU354      0.0402
    118  CG        52.3330   14.3040  -30.3480 C.3   354  GLU354      0.1161
    119  CD        51.2630   14.0460  -31.3820 C.2   354  GLU354      0.3649
    120  OE1       50.1530   14.6070  -31.2190 O.co2 354  GLU354     -0.2457
    121  OE2       51.5220   13.2780  -32.3410 O.co2 354  GLU354     -0.2457
    122  N         51.7470   12.7440  -26.1750 N.am  355  HIS355     -0.1976
    123  CA        50.9750   12.5130  -24.9710 C.3   355  HIS355      0.1656
    124  C         51.7050   13.1620  -23.8050 C.2   355  HIS355      0.2291
    125  O         51.1290   13.9500  -23.0500 O.2   355  HIS355     -0.2864
    126  CB        50.7970   11.0180  -24.7300 C.3   355  HIS355      0.0771
    127  CG        50.0360   10.7040  -23.4840 C.ar  355  HIS355      0.0820
    128  ND1       48.7070   11.0290  -23.3280 N.ar  355  HIS355     -0.2267
    129  CD2       50.4350   10.1620  -22.3100 C.ar  355  HIS355      0.1154
    130  CE1       48.3220   10.7040  -22.1070 C.ar  355  HIS355      0.1986
    131  NE2       49.3520   10.1770  -21.4690 N.ar  355  HIS355     -0.2212
    132  N         51.3450   16.8390  -23.9070 N.3   358  ARG358     -0.1245
    133  CA        50.0580   17.3730  -23.4640 C.3   358  ARG358      0.1563
    134  C         49.8550   17.1140  -21.9780 C.2   358  ARG358      0.2260
    135  O         49.2170   17.8990  -21.2820 O.2   358  ARG358     -0.2867
    136  CB        48.8960   16.7520  -24.2500 C.3   358  ARG358      0.0307
    137  CG        48.8400   17.0930  -25.7400 C.3   358  ARG358      0.0489
    138  CD        47.5640   16.5250  -26.3870 C.3   358  ARG358      0.2205
    139  NE        47.4040   15.0810  -26.1590 N.pl3 358  ARG358     -0.0865
    140  CZ        47.9850   14.1110  -26.8730 C.cat 358  ARG358      0.5346
    141  NH1       48.7840   14.4020  -27.8960 N.pl3 358  ARG358      0.1354
    142  NH2       47.7790   12.8380  -26.5490 N.pl3 358  ARG358      0.1354
@<TRIPOS>BOND
     1    83    82    2
     2    82    81    1
     3    81    84    1
     4    81    80    1
     5    84    85    1
     6    15    12    1
     7    15    16    1
     8    85    86    1
     9    12    11    1
    10    12    13    1
    11    11     3   am
    12     1     2    1
    13    14    13    2
    14     4     3    2
    15    87    86   ar
    16     3     2    1
    17    16    17   ar
    18    16    18   ar
    19    86    88   ar
    20    13    21   am
    21     2     5    1
    22    17    19   ar
    23    18    20   ar
    24    72    71    2
    25    71    70    1
    26    19    20   ar
    27    21    22    1
    28     5     6    1
    29    23    24    2
    30    23    22    1
    31    22    25    1
    32     6     7   ar
    33     6     8   ar
    34    70    69    1
    35    70    73    1
    36     7     9   ar
    37     8    10   ar
    38     9    10   ar
    39    73    74    1
    40    25    26    1
    41    89    90    1
    42    27    26   ar
    43    27    29   ar
    44   103   102    1
    45    26    28   ar
    46    29    31   ar
    47   121   119   ar
    48   102   104    1
    49   102   101    1
    50    74    75   ar
    51    74    76   ar
    52    90    93    1
    53    90    91    1
    54   119   120   ar
    55   119   118    1
    56    75    77   ar
    57    76    78   ar
    58    97    98    1
    59    28    30   ar
    60    31    30   ar
    61    94    93    1
    62    94    96    1
    63    94    95    1
    64    91    92    2
    65   101    98    1
    66    98    99    1
    67   118   117    1
    68    77    79   ar
    69    78    79   ar
    70    53    51    1
    71   117   114    1
    72    99   105   am
    73    99   100    2
    74    50    49    2
    75   105   106    1
    76    51    52    1
    77    51    48    1
    78    54    52    1
    79    49    48    1
    80   113   114    1
    81   141   140    1
    82   114   115    1
    83    48    47    1
    84   106   109    1
    85   106   107    1
    86   140   142    1
    87   140   139    2
    88   110   109    1
    89   110   112    1
    90   109   111    1
    91   107   108    2
    92   115   122   am
    93   115   116    2
    94   138   139    1
    95   138   137    1
    96   122   123    1
    97    58    57    2
    98    37    36    1
    99    36    38    1
   100    36    33    1
   101   137   136    1
   102    35    34    2
   103    42    41    2
   104    57    56    1
   105    41    40    1
   106   123   126    1
   107   123   124    1
   108    45    44    1
   109    43    44    1
   110    43    40    1
   111   126   127    1
   112    34    33    1
   113    33    32    1
   114    56    59    1
   115    56    55    1
   116   136   133    1
   117    44    46    1
   118    40    39    1
   119    59    60    1
   120   132   133    1
   121   124   125    2
   122   127   128   ar
   123   127   129   ar
   124   133   134    1
   125   128   130   ar
   126    67    66    1
   127   129   131   ar
   128   130   131   ar
   129    66    68    1
   130    66    65    1
   131   134   135    2
   132    64    63    2
   133    62    63    1
   134    62    65    1
   135    62    61    1
