@<TRIPOS>MOLECULE
tmp/2azyA00.pdb
 178 172 0 0 0
SMALL
GASTEIGER

@<TRIPOS>ATOM
      1  N         44.2790   24.7490   11.2940 N.3     2  LEU2       -0.1245
      2  CA        43.4490   23.5510   11.4250 C.3     2  LEU2        0.1561
      3  C         44.1770   22.2350   11.1380 C.2     2  LEU2        0.2260
      4  O         44.0910   21.2920   11.9210 O.2     2  LEU2       -0.2867
      5  CB        42.2260   23.6500   10.5040 C.3     2  LEU2        0.0270
      6  CG        41.3120   22.4180   10.4710 C.3     2  LEU2        0.0019
      7  CD1       40.7170   22.1810   11.8580 C.3     2  LEU2        0.0001
      8  CD2       40.2030   22.6250    9.4440 C.3     2  LEU2        0.0001
      9  N         46.3410   21.3130   13.9080 N.3     5  PHE5       -0.1227
     10  CA        45.5630   20.9080   15.0690 C.3     5  PHE5        0.1736
     11  C         45.2640   19.4160   14.8950 C.2     5  PHE5        0.2595
     12  O         45.3910   18.6310   15.8380 O.2     5  PHE5       -0.2718
     13  CB        44.2750   21.7390   15.1290 C.3     5  PHE5        0.0547
     14  CG        43.3700   21.4120   16.2930 C.ar    5  PHE5       -0.0202
     15  CD1       43.8930   21.0690   17.5390 C.ar    5  PHE5       -0.0042
     16  CD2       41.9870   21.5100   16.1520 C.ar    5  PHE5       -0.0042
     17  CE1       43.0520   20.8320   18.6240 C.ar    5  PHE5       -0.0003
     18  CE2       41.1360   21.2780   17.2340 C.ar    5  PHE5       -0.0003
     19  CZ        41.6730   20.9390   18.4740 C.ar    5  PHE5       -0.0000
     20  N         44.8870   19.0270   13.6780 N.am    6  ARG6       -0.1980
     21  CA        44.6010   17.6260   13.3870 C.3     6  ARG6        0.1597
     22  C         45.8540   16.7910   13.6160 C.2     6  ARG6        0.2287
     23  O         45.7800   15.6670   14.1130 O.2     6  ARG6       -0.2864
     24  CB        44.1360   17.4420   11.9330 C.3     6  ARG6        0.0334
     25  CG        42.7730   18.0380   11.6070 C.3     6  ARG6        0.0492
     26  CD        42.2390   17.4780   10.2880 C.3     6  ARG6        0.2205
     27  NE        43.0850   17.8180    9.1430 N.pl3   6  ARG6       -0.0865
     28  CZ        42.8460   18.8180    8.2970 C.cat   6  ARG6        0.5346
     29  NH1       43.6780   19.0470    7.2870 N.pl3   6  ARG6        0.1354
     30  NH2       41.7730   19.5830    8.4470 N.pl3   6  ARG6        0.1354
     31  N         46.5010   16.1880   17.2580 N.3     9  ILE9       -0.1231
     32  CA        45.5700   15.1780   17.7440 C.3     9  ILE9        0.1692
     33  C         46.0940   13.7770   17.4420 C.2     9  ILE9        0.2591
     34  O         45.9910   12.8760   18.2770 O.2     9  ILE9       -0.2718
     35  CB        44.1770   15.3940   17.1180 C.3     9  ILE9        0.0266
     36  CG1       43.6250   16.7430   17.5940 C.3     9  ILE9        0.0019
     37  CG2       43.2240   14.2620   17.5150 C.3     9  ILE9        0.0020
     38  CD1       42.3620   17.1880   16.8830 C.3     9  ILE9        0.0001
     39  N         46.6670   13.5920   16.2560 N.am   10  LYS10      -0.1980
     40  CA        47.2220   12.2920   15.9000 C.3    10  LYS10       0.1596
     41  C         48.4580   12.0340   16.7590 C.2    10  LYS10       0.2287
     42  O         48.7750   10.8920   17.0850 O.2    10  LYS10      -0.2864
     43  CB        47.5850   12.2560   14.4130 C.3    10  LYS10       0.0298
     44  CG        46.3740   12.1820   13.4940 C.3    10  LYS10       0.0038
     45  CD        45.7380   10.7950   13.5420 C.3    10  LYS10       0.0206
     46  CE        44.3710   10.7660   12.8690 C.3    10  LYS10       0.1093
     47  NZ        43.3340   11.4570   13.6890 N.3    10  LYS10      -0.1314
     48  N         47.0210   11.2240   20.2110 N.3    13  ILE13      -0.1245
     49  CA        46.1610   10.0470   20.1030 C.3    13  ILE13       0.1561
     50  C         46.4410    9.2970   18.8050 C.2    13  ILE13       0.2260
     51  O         45.6680    9.3730   17.8460 O.2    13  ILE13      -0.2867
     52  CB        44.6710   10.4430   20.1410 C.3    13  ILE13       0.0252
     53  CG1       44.4330   11.4350   21.2820 C.3    13  ILE13       0.0019
     54  CG2       43.8070    9.2030   20.3430 C.3    13  ILE13       0.0019
     55  CD1       43.0110   11.9340   21.3790 C.3    13  ILE13       0.0001
     56  N         46.0330    6.3340   17.8430 N.3    15  GLY15      -0.1210
     57  CA        44.9800    5.4570   17.3600 C.3    15  GLY15       0.1956
     58  C         43.6960    6.0930   16.8560 C.2    15  GLY15       0.2613
     59  O         42.7540    5.3760   16.5110 O.2    15  GLY15      -0.2717
     60  N         43.6370    7.4210   16.8070 N.am   16  SER16      -0.1938
     61  CA        42.4310    8.0920   16.3280 C.3    16  SER16       0.2055
     62  C         42.2260    7.8150   14.8360 C.2    16  SER16       0.2643
     63  O         43.1880    7.6270   14.0920 O.2    16  SER16      -0.2714
     64  CB        42.5110    9.5990   16.5990 C.3    16  SER16       0.2130
     65  OG        43.7090   10.1540   16.0980 O.3    16  SER16      -0.2179
     66  N         40.9680    7.8010   14.4070 N.am   17  HIS17      -0.1973
     67  CA        40.6190    7.4950   13.0210 C.3    17  HIS17       0.1656
     68  C         40.4190    8.6980   12.0950 C.2    17  HIS17       0.2291
     69  O         39.6240    9.5890   12.3810 O.2    17  HIS17      -0.2864
     70  CB        39.3570    6.6300   13.0150 C.3    17  HIS17       0.0771
     71  CG        39.4260    5.4670   13.9560 C.ar   17  HIS17       0.0820
     72  ND1       40.2750    4.3990   13.7600 N.ar   17  HIS17      -0.2267
     73  CD2       38.7770    5.2220   15.1190 C.ar   17  HIS17       0.1154
     74  CE1       40.1470    3.5460   14.7610 C.ar   17  HIS17       0.1986
     75  NE2       39.2440    4.0220   15.6000 N.ar   17  HIS17      -0.2212
     76  N         37.0400   10.1300   11.0700 N.3    20  MET20      -0.1230
     77  CA        36.2760   10.8470   12.0860 C.3    20  MET20       0.1702
     78  C         36.1770   12.3290   11.7160 C.2    20  MET20       0.2592
     79  O         35.2500   13.0210   12.1370 O.2    20  MET20      -0.2718
     80  CB        36.9430   10.7050   13.4580 C.3    20  MET20       0.0401
     81  CG        36.1590   11.3440   14.6050 C.3    20  MET20       0.0596
     82  SD        34.5540   10.5550   14.9120 S.3    20  MET20      -0.1393
     83  CE        35.0650    9.1390   15.9080 C.3    20  MET20       0.0692
     84  N         37.1300   12.8090   10.9190 N.am   21  ASP21      -0.1974
     85  CA        37.1480   14.2110   10.5060 C.3    21  ASP21       0.1709
     86  C         35.9050   14.6270    9.7190 C.2    21  ASP21       0.2293
     87  O         35.5950   15.8160    9.6260 O.2    21  ASP21      -0.2864
     88  CB        38.4140   14.5090    9.6850 C.3    21  ASP21       0.1436
     89  CG        39.6900   14.3730   10.5040 C.2    21  ASP21       0.3671
     90  OD1       39.5880   14.2470   11.7440 O.co2  21  ASP21      -0.2456
     91  OD2       40.7960   14.4020    9.9150 O.co2  21  ASP21      -0.2456
     92  N         32.9430   13.8210   10.5880 N.3    23  ASN23      -0.1225
     93  CA        31.8740   13.9910   11.5640 C.3    23  ASN23       0.1785
     94  C         32.0630   15.0960   12.5890 C.2    23  ASN23       0.2597
     95  O         33.1550   15.6380   12.7530 O.2    23  ASN23      -0.2718
     96  CB        31.6810   12.6930   12.3520 C.3    23  ASN23       0.1169
     97  CG        31.5290   11.4820   11.4630 C.2    23  ASN23       0.2627
     98  OD1       30.6610   11.4410   10.5980 O.2    23  ASN23      -0.2716
     99  ND2       32.3750   10.4820   11.6810 N.am   23  ASN23      -0.0877
    100  N         30.9740   15.4420   13.2660 N.am   24  ASN24      -0.1960
    101  CA        31.0210   16.4350   14.3260 C.3    24  ASN24       0.1819
    102  C         30.6680   15.6590   15.5920 C.2    24  ASN24       0.2621
    103  O         30.2270   14.5100   15.5110 O.2    24  ASN24      -0.2715
    104  CB        30.0410   17.5900   14.0620 C.3    24  ASN24       0.1195
    105  CG        28.6160   17.1260   13.8460 C.2    24  ASN24       0.2630
    106  OD1       27.7600   17.9050   13.4320 O.2    24  ASN24      -0.2716
    107  ND2       28.3520   15.8610   14.1300 N.am   24  ASN24      -0.0877
    108  N         30.8660   16.2670   16.7550 N.am   25  TYR25      -0.1974
    109  CA        30.6090   15.5850   18.0120 C.3    25  TYR25       0.1639
    110  C         30.0300   16.5270   19.0520 C.2    25  TYR25       0.2290
    111  O         30.4890   17.6550   19.2000 O.2    25  TYR25      -0.2864
    112  CB        31.9170   14.9660   18.5140 C.3    25  TYR25       0.0560
    113  CG        31.8220   14.1850   19.8050 C.ar   25  TYR25      -0.0198
    114  CD1       31.8520   14.8310   21.0420 C.ar   25  TYR25      -0.0009
    115  CD2       31.7460   12.7900   19.7910 C.ar   25  TYR25      -0.0009
    116  CE1       31.8170   14.1050   22.2360 C.ar   25  TYR25       0.0417
    117  CE2       31.7090   12.0560   20.9800 C.ar   25  TYR25       0.0417
    118  CZ        31.7480   12.7200   22.1950 C.ar   25  TYR25       0.1957
    119  OH        31.7480   11.9940   23.3650 O.3    25  TYR25      -0.2866
    120  N         32.1190   20.2710   19.2270 N.3    29  CYS29      -0.1221
    121  CA        33.1760   19.7140   18.3830 C.3    29  CYS29       0.1808
    122  C         32.8800   19.8070   16.8860 C.2    29  CYS29       0.2601
    123  O         31.9980   19.1170   16.3700 O.2    29  CYS29      -0.2717
    124  CB        33.4550   18.2600   18.7690 C.3    29  CYS29       0.0970
    125  SG        34.0630   18.0350   20.4780 S.3    29  CYS29      -0.0800
    126  N         33.6360   20.6650   16.2040 N.am   30  GLY30      -0.1957
    127  CA        33.4840   20.8560   14.7720 C.3    30  GLY30       0.1869
    128  C         32.2780   21.6800   14.3630 C.2    30  GLY30       0.2309
    129  O         31.9540   21.7680   13.1770 O.2    30  GLY30      -0.2863
    130  N         34.5810   15.4340   26.6180 N.3    41  LEU41      -0.1245
    131  CA        35.1820   15.6420   25.3030 C.3    41  LEU41       0.1561
    132  C         34.5840   16.8710   24.6210 C.2    41  LEU41       0.2260
    133  O         35.3070   17.7000   24.0610 O.2    41  LEU41      -0.2867
    134  CB        34.9730   14.3940   24.4340 C.3    41  LEU41       0.0270
    135  CG        35.5830   14.3510   23.0260 C.3    41  LEU41       0.0019
    136  CD1       37.0590   14.7100   23.0780 C.3    41  LEU41       0.0001
    137  CD2       35.4030   12.9530   22.4490 C.3    41  LEU41       0.0001
    138  N         36.1090   20.8190   23.4150 N.3    45  CYS45      -0.1235
    139  CA        35.8840   21.5950   22.2010 C.3    45  CYS45       0.1677
    140  C         35.3200   22.9820   22.5050 C.2    45  CYS45       0.2270
    141  O         35.6760   23.9520   21.8380 O.2    45  CYS45      -0.2867
    142  CB        34.9480   20.8470   21.2430 C.3    45  CYS45       0.0956
    143  SG        35.6530   19.2940   20.5980 S.3    45  CYS45      -0.0801
    144  N         41.7940   29.5570   12.7200 N.3    69  TYR69      -0.1241
    145  CA        42.1250   28.2710   12.1160 C.3    69  TYR69       0.1605
    146  C         43.0450   28.4040   10.9070 C.2    69  TYR69       0.2264
    147  O         43.6380   27.4220   10.4610 O.2    69  TYR69      -0.2867
    148  CB        40.8470   27.5300   11.7180 C.3    69  TYR69       0.0534
    149  CG        40.2290   26.7430   12.8500 C.ar   69  TYR69      -0.0201
    150  CD1       40.9190   25.6820   13.4410 C.ar   69  TYR69      -0.0009
    151  CD2       38.9570   27.0510   13.3300 C.ar   69  TYR69      -0.0009
    152  CE1       40.3550   24.9450   14.4820 C.ar   69  TYR69       0.0417
    153  CE2       38.3830   26.3210   14.3730 C.ar   69  TYR69       0.0417
    154  CZ        39.0880   25.2710   14.9400 C.ar   69  TYR69       0.1957
    155  OH        38.5260   24.5460   15.9650 O.3    69  TYR69      -0.2866
    156  N         41.5400   16.1690   24.8030 N.3   106  PHE106     -0.1241
    157  CA        40.8920   15.0980   24.0490 C.3   106  PHE106      0.1605
    158  C         41.4380   13.7230   24.4400 C.2   106  PHE106      0.2264
    159  O         40.6780   12.7770   24.6500 O.2   106  PHE106     -0.2867
    160  CB        41.1140   15.2560   22.5380 C.3   106  PHE106      0.0534
    161  CG        40.4870   16.4850   21.9260 C.ar  106  PHE106     -0.0203
    162  CD1       39.3840   17.1070   22.5040 C.ar  106  PHE106     -0.0042
    163  CD2       40.9810   16.9850   20.7210 C.ar  106  PHE106     -0.0042
    164  CE1       38.7810   18.2100   21.8890 C.ar  106  PHE106     -0.0003
    165  CE2       40.3870   18.0860   20.0970 C.ar  106  PHE106     -0.0003
    166  CZ        39.2850   18.6990   20.6830 C.ar  106  PHE106     -0.0000
    167  N         35.4100    8.8660   24.9730 N.3   111  TYR111     -0.1241
    168  CA        34.6850    9.0840   23.7300 C.3   111  TYR111      0.1605
    169  C         33.3570    8.3380   23.7860 C.2   111  TYR111      0.2264
    170  O         33.3290    7.1150   23.9170 O.2   111  TYR111     -0.2867
    171  CB        35.5100    8.6050   22.5330 C.3   111  TYR111      0.0534
    172  CG        34.7210    8.5260   21.2480 C.ar  111  TYR111     -0.0201
    173  CD1       34.1090    7.3360   20.8560 C.ar  111  TYR111     -0.0009
    174  CD2       34.5650    9.6480   20.4330 C.ar  111  TYR111     -0.0009
    175  CE1       33.3630    7.2610   19.6850 C.ar  111  TYR111      0.0417
    176  CE2       33.8190    9.5850   19.2590 C.ar  111  TYR111      0.0417
    177  CZ        33.2210    8.3880   18.8910 C.ar  111  TYR111      0.1957
    178  OH        32.4800    8.3180   17.7330 O.3   111  TYR111     -0.2866
@<TRIPOS>BOND
     1    29    28    1
     2    28    30    1
     3    28    27    2
     4    27    26    1
     5     8     6    1
     6    87    86    2
     7    88    89    1
     8    88    85    1
     9    86    85    1
    10    91    89   ar
    11    26    25    1
    12   147   146    2
    13     6     5    1
    14     6     7    1
    15     5     2    1
    16    89    90   ar
    17    85    84    1
    18    92    93    1
    19    98    97    2
    20   146   145    1
    21    84    78   am
    22    76    77    1
    23     3     2    1
    24     3     4    2
    25     1     2    1
    26    97    99   am
    27    97    96    1
    28    93    96    1
    29    93    94    1
    30    25    24    1
    31    78    77    1
    32    78    79    2
    33   148   145    1
    34   148   149    1
    35    24    21    1
    36    77    80    1
    37    68    69    2
    38    68    67    1
    39   145   144    1
    40    94    95    2
    41    94   100   am
    42   149   151   ar
    43   149   150   ar
    44    46    45    1
    45    46    47    1
    46    70    67    1
    47    70    71    1
    48    67    66    1
    49   129   128    2
    50   100   101    1
    51   151   153   ar
    52    21    22    1
    53    21    20    1
    54   106   105    2
    55   150   152   ar
    56    80    81    1
    57    44    45    1
    58    44    43    1
    59    22    23    2
    60    20    11   am
    61    72    71   ar
    62    72    74   ar
    63   105   104    1
    64   105   107   am
    65     9    10    1
    66    71    73   ar
    67   104   101    1
    68    63    62    2
    69   101   102    1
    70   128   127    1
    71   153   154   ar
    72    66    62   am
    73    43    40    1
    74   152   154   ar
    75    81    82    1
    76    74    75   ar
    77   127   126    1
    78    62    61    1
    79    11    10    1
    80    11    12    2
    81    82    83    1
    82   154   155    1
    83    10    13    1
    84    73    75   ar
    85    13    14    1
    86   103   102    2
    87   102   108   am
    88    40    39    1
    89    40    41    1
    90    65    64    1
    91    16    14   ar
    92    16    18   ar
    93   126   122   am
    94    39    33   am
    95    14    15   ar
    96    61    64    1
    97    61    60    1
    98   123   122    2
    99    59    58    2
   100   108   109    1
   101    41    42    2
   102    60    58   am
   103    58    57    1
   104    38    36    1
   105   122   121    1
   106    35    37    1
   107    35    36    1
   108    35    32    1
   109    18    19   ar
   110    31    32    1
   111    57    56    1
   112    33    32    1
   113    33    34    2
   114    15    17   ar
   115   178   177    1
   116    51    50    2
   117   109   112    1
   118   109   110    1
   119   121   124    1
   120   121   120    1
   121    19    17   ar
   122   112   113    1
   123   124   125    1
   124    50    49    1
   125   177   176   ar
   126   177   175   ar
   127   110   111    2
   128   176   174   ar
   129   175   173   ar
   130   115   113   ar
   131   115   117   ar
   132   113   114   ar
   133   165   166   ar
   134   165   163   ar
   135    49    52    1
   136    49    48    1
   137    52    54    1
   138    52    53    1
   139   174   172   ar
   140   125   143    1
   141   143   142    1
   142   166   164   ar
   143   163   161   ar
   144   173   172   ar
   145   117   118   ar
   146   114   116   ar
   147   142   139    1
   148   172   171    1
   149    53    55    1
   150   141   140    2
   151   164   162   ar
   152   161   162   ar
   153   161   160    1
   154   118   116   ar
   155   118   119    1
   156   139   140    1
   157   139   138    1
   158   137   135    1
   159   171   168    1
   160   160   157    1
   161   135   136    1
   162   135   134    1
   163   168   169    1
   164   168   167    1
   165   169   170    2
   166   157   158    1
   167   157   156    1
   168   133   132    2
   169   134   131    1
   170   158   159    2
   171   132   131    1
   172   131   130    1
