@<TRIPOS>MOLECULE
tmp/2b00A00.pdb
 192 186 0 0 0
SMALL
GASTEIGER

@<TRIPOS>ATOM
      1  N         44.0650   24.4470   11.2410 N.3     2  LEU2       -0.1245
      2  CA        43.2150   23.2670   11.3780 C.3     2  LEU2        0.1561
      3  C         43.9170   21.9440   11.0590 C.2     2  LEU2        0.2260
      4  O         43.7820   20.9730   11.8060 O.2     2  LEU2       -0.2867
      5  CB        41.9690   23.4040   10.4910 C.3     2  LEU2        0.0270
      6  CG        41.0470   22.1770   10.4250 C.3     2  LEU2        0.0019
      7  CD1       40.4830   21.8760   11.8070 C.3     2  LEU2        0.0001
      8  CD2       39.9190   22.4330    9.4410 C.3     2  LEU2        0.0001
      9  N         46.1080   21.0160   13.8640 N.3     5  PHE5       -0.1227
     10  CA        45.3410   20.6110   15.0350 C.3     5  PHE5        0.1736
     11  C         45.0500   19.1130   14.8720 C.2     5  PHE5        0.2595
     12  O         45.1880   18.3400   15.8190 O.2     5  PHE5       -0.2718
     13  CB        44.0440   21.4310   15.1050 C.3     5  PHE5        0.0547
     14  CG        43.1660   21.1130   16.2870 C.ar    5  PHE5       -0.0202
     15  CD1       43.7160   20.7950   17.5300 C.ar    5  PHE5       -0.0042
     16  CD2       41.7780   21.2030   16.1700 C.ar    5  PHE5       -0.0042
     17  CE1       42.8980   20.5770   18.6380 C.ar    5  PHE5       -0.0003
     18  CE2       40.9510   20.9900   17.2710 C.ar    5  PHE5       -0.0003
     19  CZ        41.5100   20.6770   18.5090 C.ar    5  PHE5       -0.0000
     20  N         44.6700   18.7060   13.6620 N.am    6  ARG6       -0.1980
     21  CA        44.3920   17.2960   13.3820 C.3     6  ARG6        0.1597
     22  C         45.6570   16.4750   13.6130 C.2     6  ARG6        0.2287
     23  O         45.5990   15.3510   14.1110 O.2     6  ARG6       -0.2864
     24  CB        43.9250   17.1010   11.9320 C.3     6  ARG6        0.0334
     25  CG        42.5690   17.7130   11.6050 C.3     6  ARG6        0.0492
     26  CD        42.0280   17.1800   10.2800 C.3     6  ARG6        0.2205
     27  NE        42.8720   17.5130    9.1330 N.pl3   6  ARG6       -0.0865
     28  CZ        42.6100   18.4800    8.2570 C.cat   6  ARG6        0.5346
     29  NH1       43.4380   18.7090    7.2470 N.pl3   6  ARG6        0.1354
     30  NH2       41.5160   19.2140    8.3840 N.pl3   6  ARG6        0.1354
     31  N         46.2600   15.9560   17.3300 N.3     9  ILE9       -0.1245
     32  CA        45.3530   14.9490   17.8570 C.3     9  ILE9        0.1561
     33  C         45.9000   13.5500   17.5940 C.2     9  ILE9        0.2260
     34  O         45.8190   12.6770   18.4610 O.2     9  ILE9       -0.2867
     35  CB        43.9530   15.1250   17.2470 C.3     9  ILE9        0.0252
     36  CG1       43.4100   16.4990   17.6590 C.3     9  ILE9        0.0019
     37  CG2       43.0110   14.0150   17.7310 C.3     9  ILE9        0.0019
     38  CD1       42.1070   16.8820   16.9960 C.3     9  ILE9        0.0001
     39  N         46.8310   11.0330   20.2740 N.3    13  ILE13      -0.1245
     40  CA        45.9850    9.8470   20.1430 C.3    13  ILE13       0.1561
     41  C         46.2560    9.1450   18.8100 C.2    13  ILE13       0.2260
     42  O         45.5030    9.3060   17.8440 O.2    13  ILE13      -0.2867
     43  CB        44.4910   10.2310   20.2090 C.3    13  ILE13       0.0252
     44  CG1       44.2460   11.1540   21.4060 C.3    13  ILE13       0.0019
     45  CG2       43.6300    8.9760   20.3340 C.3    13  ILE13       0.0019
     46  CD1       42.8690   11.7580   21.4280 C.3    13  ILE13       0.0001
     47  N         43.4300    7.2350   16.8740 N.3    16  SER16      -0.1202
     48  CA        42.2600    7.9410   16.3620 C.3    16  SER16       0.2020
     49  C         42.0570    7.6110   14.8840 C.2    16  SER16       0.2618
     50  O         43.0190    7.3460   14.1580 O.2    16  SER16      -0.2717
     51  CB        42.4260    9.4500   16.5590 C.3    16  SER16       0.2103
     52  OG        43.6810    9.8900   16.0760 O.3    16  SER16      -0.2182
     53  N         40.8030    7.6330   14.4420 N.am   17  HIS17      -0.1975
     54  CA        40.4700    7.3010   13.0610 C.3    17  HIS17       0.1656
     55  C         40.1810    8.5110   12.1770 C.2    17  HIS17       0.2291
     56  O         39.3460    9.3520   12.5070 O.2    17  HIS17      -0.2864
     57  CB        39.2790    6.3470   13.0520 C.3    17  HIS17       0.0771
     58  CG        39.4600    5.1660   13.9530 C.ar   17  HIS17       0.0820
     59  ND1       40.4720    4.2460   13.7760 N.ar   17  HIS17      -0.2267
     60  CD2       38.7880    4.7790   15.0620 C.ar   17  HIS17       0.1154
     61  CE1       40.4160    3.3430   14.7390 C.ar   17  HIS17       0.1986
     62  NE2       39.4030    3.6430   15.5330 N.ar   17  HIS17      -0.2212
     63  N         36.7480    9.9740   11.0710 N.3    20  MET20      -0.1230
     64  CA        36.0080   10.7140   12.0840 C.3    20  MET20       0.1702
     65  C         35.8840   12.1790   11.6920 C.2    20  MET20       0.2592
     66  O         34.9190   12.8460   12.0660 O.2    20  MET20      -0.2718
     67  CB        36.7110   10.6050   13.4440 C.3    20  MET20       0.0401
     68  CG        35.9680   11.2900   14.5930 C.3    20  MET20       0.0596
     69  SD        34.3410   10.5660   14.9190 S.3    20  MET20      -0.1393
     70  CE        34.8080    9.1210   15.8970 C.3    20  MET20       0.0692
     71  N         36.8570   12.6780   10.9300 N.am   21  ASP21      -0.1974
     72  CA        36.8440   14.0750   10.5050 C.3    21  ASP21       0.1709
     73  C         35.6090   14.4630    9.7050 C.2    21  ASP21       0.2293
     74  O         35.3070   15.6490    9.5580 O.2    21  ASP21      -0.2864
     75  CB        38.1060   14.4080    9.7030 C.3    21  ASP21       0.1436
     76  CG        39.3540   14.4260   10.5670 C.2    21  ASP21       0.3671
     77  OD1       39.2440   14.7740   11.7620 O.co2  21  ASP21      -0.2456
     78  OD2       40.4460   14.1080   10.0520 O.co2  21  ASP21      -0.2456
     79  N         32.7160   13.5580   10.6370 N.3    23  ASN23      -0.1225
     80  CA        31.7010   13.6650   11.6780 C.3    23  ASN23       0.1785
     81  C         31.8690   14.7960   12.6850 C.2    23  ASN23       0.2597
     82  O         32.9470   15.3700   12.8280 O.2    23  ASN23      -0.2718
     83  CB        31.6510   12.3480   12.4540 C.3    23  ASN23       0.1169
     84  CG        31.4320   11.1460   11.5560 C.2    23  ASN23       0.2627
     85  OD1       31.9860   10.0730   11.7940 O.2    23  ASN23      -0.2716
     86  ND2       30.6170   11.3150   10.5310 N.am   23  ASN23      -0.0877
     87  N         30.7730   15.1070   13.3700 N.am   24  ASN24      -0.1960
     88  CA        30.7600   16.1100   14.4290 C.3    24  ASN24       0.1819
     89  C         30.4610   15.3120   15.6970 C.2    24  ASN24       0.2621
     90  O         30.1000   14.1340   15.6200 O.2    24  ASN24      -0.2715
     91  CB        29.6650   17.1600   14.2070 C.3    24  ASN24       0.1195
     92  CG        29.9640   18.0800   13.0390 C.2    24  ASN24       0.2630
     93  OD1       31.1120   18.4660   12.8130 O.2    24  ASN24      -0.2716
     94  ND2       28.9270   18.4480   12.2960 N.am   24  ASN24      -0.0877
     95  N         30.6060   15.9410   16.8560 N.am   25  TYR25      -0.1974
     96  CA        30.3520   15.2570   18.1150 C.3    25  TYR25       0.1639
     97  C         29.8020   16.2330   19.1450 C.2    25  TYR25       0.2290
     98  O         30.2610   17.3710   19.2430 O.2    25  TYR25      -0.2864
     99  CB        31.6490   14.6160   18.6170 C.3    25  TYR25       0.0560
    100  CG        31.5480   13.8660   19.9270 C.ar   25  TYR25      -0.0198
    101  CD1       31.5120   14.5460   21.1460 C.ar   25  TYR25      -0.0009
    102  CD2       31.5410   12.4680   19.9500 C.ar   25  TYR25      -0.0009
    103  CE1       31.4820   13.8520   22.3600 C.ar   25  TYR25       0.0417
    104  CE2       31.5100   11.7690   21.1530 C.ar   25  TYR25       0.0417
    105  CZ        31.4840   12.4640   22.3530 C.ar   25  TYR25       0.1957
    106  OH        31.4890   11.7670   23.5390 O.3    25  TYR25      -0.2866
    107  N         29.5200   20.9610   20.5420 N.3    28  TYR28      -0.1227
    108  CA        30.5970   21.8540   20.1540 C.3    28  TYR28       0.1736
    109  C         31.7120   21.2890   19.2880 C.2    28  TYR28       0.2596
    110  O         32.4460   22.0550   18.6710 O.2    28  TYR28      -0.2718
    111  CB        31.1830   22.4950   21.4170 C.3    28  TYR28       0.0548
    112  CG        30.2800   23.5690   21.9790 C.ar   28  TYR28      -0.0200
    113  CD1       30.3490   24.8740   21.4980 C.ar   28  TYR28      -0.0009
    114  CD2       29.2950   23.2630   22.9230 C.ar   28  TYR28      -0.0009
    115  CE1       29.4590   25.8510   21.9310 C.ar   28  TYR28       0.0417
    116  CE2       28.3930   24.2400   23.3650 C.ar   28  TYR28       0.0417
    117  CZ        28.4850   25.5300   22.8570 C.ar   28  TYR28       0.1957
    118  OH        27.5950   26.5020   23.2470 O.3    28  TYR28      -0.2866
    119  N         31.8660   19.9700   19.2380 N.am   29  CYS29      -0.1956
    120  CA        32.9180   19.4100   18.3960 C.3    29  CYS29       0.1843
    121  C         32.4410   19.5090   16.9520 C.2    29  CYS29       0.2626
    122  O         31.6380   18.7020   16.4840 O.2    29  CYS29      -0.2714
    123  CB        33.2120   17.9610   18.7740 C.3    29  CYS29       0.0997
    124  SG        33.8050   17.7380   20.4860 S.3    29  CYS29      -0.0797
    125  N         32.9530   20.5170   16.2600 N.am   30  GLY30      -0.1954
    126  CA        32.5710   20.7890   14.8880 C.3    30  GLY30       0.1869
    127  C         32.5130   22.3040   14.8380 C.2    30  GLY30       0.2309
    128  O         32.8710   22.9510   15.8200 O.2    30  GLY30      -0.2863
    129  N         34.2860   15.2050   26.6430 N.3    41  LEU41      -0.1245
    130  CA        34.8880   15.3900   25.3260 C.3    41  LEU41       0.1561
    131  C         34.3260   16.6470   24.6630 C.2    41  LEU41       0.2260
    132  O         35.0710   17.4590   24.1080 O.2    41  LEU41      -0.2867
    133  CB        34.6230   14.1590   24.4580 C.3    41  LEU41       0.0270
    134  CG        35.2200   14.1130   23.0490 C.3    41  LEU41       0.0019
    135  CD1       36.6920   14.5270   23.0770 C.3    41  LEU41       0.0001
    136  CD2       35.0730   12.6950   22.5070 C.3    41  LEU41       0.0001
    137  N         35.9310   20.5320   23.4300 N.3    45  CYS45      -0.1235
    138  CA        35.7070   21.2830   22.1980 C.3    45  CYS45       0.1677
    139  C         35.1700   22.6850   22.4660 C.2    45  CYS45       0.2270
    140  O         35.5540   23.6330   21.7830 O.2    45  CYS45      -0.2867
    141  CB        34.7500   20.5280   21.2650 C.3    45  CYS45       0.0956
    142  SG        35.4260   18.9600   20.6260 S.3    45  CYS45      -0.0801
    143  N         37.9220   24.8010   23.6910 N.3    48  HIS48      -0.1241
    144  CA        38.8000   25.1110   22.5700 C.3    48  HIS48       0.1621
    145  C         38.1930   26.2950   21.8110 C.2    48  HIS48       0.2264
    146  O         38.9050   27.2170   21.4100 O.2    48  HIS48      -0.2867
    147  CB        38.9330   23.8870   21.6570 C.3    48  HIS48       0.0745
    148  CG        39.8640   24.0880   20.5020 C.ar   48  HIS48       0.0817
    149  ND1       39.4180   24.3120   19.2180 N.ar   48  HIS48      -0.2268
    150  CD2       41.2170   24.0940   20.4380 C.ar   48  HIS48       0.1154
    151  CE1       40.4560   24.4410   18.4110 C.ar   48  HIS48       0.1986
    152  NE2       41.5590   24.3130   19.1260 N.ar   48  HIS48      -0.2212
    153  N         41.6390   29.2630   12.6860 N.3    69  TYR69      -0.1241
    154  CA        41.9680   27.9650   12.1080 C.3    69  TYR69       0.1605
    155  C         42.8800   28.0940   10.8890 C.2    69  TYR69       0.2264
    156  O         43.4720   27.1130   10.4540 O.2    69  TYR69      -0.2867
    157  CB        40.6950   27.2040   11.7170 C.3    69  TYR69       0.0534
    158  CG        40.0980   26.3890   12.8420 C.ar   69  TYR69      -0.0201
    159  CD1       40.8170   25.3510   13.4290 C.ar   69  TYR69      -0.0009
    160  CD2       38.8130   26.6530   13.3190 C.ar   69  TYR69      -0.0009
    161  CE1       40.2740   24.5920   14.4640 C.ar   69  TYR69       0.0417
    162  CE2       38.2590   25.9010   14.3550 C.ar   69  TYR69       0.0417
    163  CZ        38.9970   24.8730   14.9200 C.ar   69  TYR69       0.1957
    164  OH        38.4650   24.1270   15.9450 O.3    69  TYR69      -0.2866
    165  N         41.2950   15.9500   24.8310 N.3   106  PHE106     -0.1241
    166  CA        40.6380   14.8810   24.0800 C.3   106  PHE106      0.1605
    167  C         41.1850   13.5100   24.4720 C.2   106  PHE106      0.2264
    168  O         40.4290   12.5510   24.6340 O.2   106  PHE106     -0.2867
    169  CB        40.8590   15.0290   22.5690 C.3   106  PHE106      0.0534
    170  CG        40.2560   16.2660   21.9620 C.ar  106  PHE106     -0.0203
    171  CD1       39.1980   16.9350   22.5750 C.ar  106  PHE106     -0.0042
    172  CD2       40.7300   16.7380   20.7410 C.ar  106  PHE106     -0.0042
    173  CE1       38.6230   18.0590   21.9770 C.ar  106  PHE106     -0.0003
    174  CE2       40.1630   17.8600   20.1330 C.ar  106  PHE106     -0.0003
    175  CZ        39.1060   18.5220   20.7540 C.ar  106  PHE106     -0.0000
    176  N         39.5580   12.3220   27.7640 N.3   109  ALA109     -0.1245
    177  CA        38.1040   12.2580   27.8640 C.3   109  ALA109      0.1562
    178  C         37.5160   10.9770   27.2900 C.2   109  ALA109      0.2260
    179  O         38.0070   10.4430   26.2980 O.2   109  ALA109     -0.2867
    180  CB        37.4780   13.4680   27.1650 C.3   109  ALA109      0.0290
    181  N         35.0290    8.6000   25.2220 N.3   111  TYR111     -0.1241
    182  CA        34.3300    8.8130   23.9660 C.3   111  TYR111      0.1605
    183  C         32.9970    8.0700   23.9990 C.2   111  TYR111      0.2264
    184  O         32.9560    6.8470   24.1290 O.2   111  TYR111     -0.2867
    185  CB        35.1860    8.3410   22.7870 C.3   111  TYR111      0.0534
    186  CG        34.4420    8.3100   21.4710 C.ar  111  TYR111     -0.0201
    187  CD1       33.8440    7.1360   21.0170 C.ar  111  TYR111     -0.0009
    188  CD2       34.3080    9.4600   20.6950 C.ar  111  TYR111     -0.0009
    189  CE1       33.1300    7.1060   19.8250 C.ar  111  TYR111      0.0417
    190  CE2       33.5950    9.4420   19.5000 C.ar  111  TYR111      0.0417
    191  CZ        33.0080    8.2610   19.0720 C.ar  111  TYR111      0.1957
    192  OH        32.3060    8.2290   17.8910 O.3   111  TYR111     -0.2866
@<TRIPOS>BOND
     1    29    28    1
     2    28    30    1
     3    28    27    2
     4    27    26    1
     5     8     6    1
     6    74    73    2
     7    75    72    1
     8    75    76    1
     9    73    72    1
    10    78    76   ar
    11    26    25    1
    12     6     5    1
    13     6     7    1
    14   156   155    2
    15     5     2    1
    16    72    71    1
    17    86    84   am
    18    76    77   ar
    19    79    80    1
    20   155   154    1
    21    71    65   am
    22     3     2    1
    23     3     4    2
    24    63    64    1
    25     1     2    1
    26    84    85    2
    27    84    83    1
    28    25    24    1
    29    80    83    1
    30    80    81    1
    31    65    66    2
    32    65    64    1
    33   157   154    1
    34   157   158    1
    35    24    21    1
    36    64    67    1
    37   154   153    1
    38    55    56    2
    39    55    54    1
    40    94    92   am
    41    81    82    2
    42    81    87   am
    43    93    92    2
    44   158   160   ar
    45   158   159   ar
    46    92    91    1
    47    57    54    1
    48    57    58    1
    49    54    53    1
    50   160   162   ar
    51    87    88    1
    52    21    22    1
    53    21    20    1
    54   159   161   ar
    55    67    68    1
    56    22    23    2
    57    20    11   am
    58    59    58   ar
    59    59    61   ar
    60     9    10    1
    61    58    60   ar
    62    50    49    2
    63    91    88    1
    64   162   163   ar
    65    88    89    1
    66    53    49   am
    67   161   163   ar
    68    68    69    1
    69    61    62   ar
    70   127   126    1
    71   127   128    2
    72    11    10    1
    73    11    12    2
    74    49    48    1
    75   126   125    1
    76    69    70    1
    77   163   164    1
    78    10    13    1
    79    60    62   ar
    80    13    14    1
    81    90    89    2
    82    89    95   am
    83    52    51    1
    84    16    14   ar
    85    16    18   ar
    86   125   121   am
    87    14    15   ar
    88    48    51    1
    89    48    47    1
    90   122   121    2
    91    95    96    1
    92   121   120    1
    93    38    36    1
    94    35    36    1
    95    35    37    1
    96    35    32    1
    97    18    19   ar
    98    31    32    1
    99    15    17   ar
   100    33    32    1
   101    33    34    2
   102    42    41    2
   103   192   191    1
   104    96    99    1
   105    96    97    1
   106   120   123    1
   107   120   119    1
   108   151   152   ar
   109   151   149   ar
   110    19    17   ar
   111    99   100    1
   112   110   109    2
   113   123   124    1
   114    41    40    1
   115   191   190   ar
   116   191   189   ar
   117   152   150   ar
   118    97    98    2
   119   149   148   ar
   120   119   109   am
   121   109   108    1
   122   190   188   ar
   123   189   187   ar
   124   100   102   ar
   125   100   101   ar
   126   102   104   ar
   127   174   172   ar
   128   174   175   ar
   129    40    43    1
   130    40    39    1
   131   108   107    1
   132   108   111    1
   133    43    45    1
   134    43    44    1
   135   150   148   ar
   136   124   142    1
   137   148   147    1
   138   142   141    1
   139   188   186   ar
   140   172   170   ar
   141   175   173   ar
   142   187   186   ar
   143   101   103   ar
   144   104   105   ar
   145   141   138    1
   146    44    46    1
   147   146   145    2
   148   111   112    1
   149   186   185    1
   150   113   115   ar
   151   113   112   ar
   152   147   144    1
   153   140   139    2
   154   145   144    1
   155   115   117   ar
   156   170   169    1
   157   170   171   ar
   158   173   171   ar
   159   112   114   ar
   160   138   139    1
   161   138   137    1
   162   105   103   ar
   163   105   106    1
   164   136   134    1
   165   169   166    1
   166   144   143    1
   167   185   182    1
   168   117   118    1
   169   117   116   ar
   170   114   116   ar
   171   134   135    1
   172   134   133    1
   173   182   183    1
   174   182   181    1
   175   183   184    2
   176   166   167    1
   177   166   165    1
   178   132   131    2
   179   133   130    1
   180   167   168    2
   181   131   130    1
   182   130   129    1
   183   179   178    2
   184   180   177    1
   185   178   177    1
   186   176   177    1
