@<TRIPOS>MOLECULE
tmp/2b03A00.pdb
 194 189 0 0 0
SMALL
GASTEIGER

@<TRIPOS>ATOM
      1  N         -7.8380   33.5020    9.3430 N.3     2  LEU2       -0.1245
      2  CA        -6.4050   33.5800    9.0980 C.3     2  LEU2        0.1561
      3  C         -5.6270   32.2780    9.3050 C.2     2  LEU2        0.2260
      4  O         -4.8550   31.8720    8.4310 O.2     2  LEU2       -0.2867
      5  CB        -5.7830   34.6790    9.9590 C.3     2  LEU2        0.0270
      6  CG        -4.2930   34.9410    9.7170 C.3     2  LEU2        0.0019
      7  CD1       -4.0980   35.3870    8.2790 C.3     2  LEU2        0.0001
      8  CD2       -3.7800   36.0010   10.6800 C.3     2  LEU2        0.0001
      9  N         -6.2860   29.8530    6.6760 N.3     5  PHE5       -0.1227
     10  CA        -5.6850   30.2650    5.4200 C.3     5  PHE5        0.1736
     11  C         -4.2470   29.7630    5.3910 C.2     5  PHE5        0.2595
     12  O         -3.7820   29.2420    4.3750 O.2     5  PHE5       -0.2718
     13  CB        -5.7370   31.7930    5.3010 C.3     5  PHE5        0.0547
     14  CG        -5.2500   32.3290    3.9800 C.ar    5  PHE5       -0.0202
     15  CD1       -5.5770   31.6910    2.7830 C.ar    5  PHE5       -0.0042
     16  CD2       -4.5190   33.5130    3.9280 C.ar    5  PHE5       -0.0042
     17  CE1       -5.1890   32.2250    1.5510 C.ar    5  PHE5       -0.0003
     18  CE2       -4.1240   34.0600    2.7040 C.ar    5  PHE5       -0.0003
     19  CZ        -4.4620   33.4140    1.5080 C.ar    5  PHE5       -0.0000
     20  N         -3.5500   29.9100    6.5140 N.am    6  ARG6       -0.1980
     21  CA        -2.1650   29.4590    6.6070 C.3     6  ARG6        0.1597
     22  C         -2.1110   27.9670    6.3200 C.2     6  ARG6        0.2287
     23  O         -1.2990   27.4960    5.5250 O.2     6  ARG6       -0.2864
     24  CB        -1.5900   29.7290    8.0060 C.3     6  ARG6        0.0334
     25  CG        -1.1880   31.1760    8.2600 C.3     6  ARG6        0.0492
     26  CD        -0.2980   31.2970    9.4880 C.3     6  ARG6        0.2205
     27  NE        -1.0320   31.0510   10.7240 N.pl3   6  ARG6       -0.0865
     28  CZ        -1.5480   32.0090   11.4810 C.cat   6  ARG6        0.5346
     29  NH1       -2.2080   31.7000   12.5860 N.pl3   6  ARG6        0.1354
     30  NH2       -1.3850   33.2780   11.1400 N.pl3   6  ARG6        0.1354
     31  N         -2.6100   26.9530    2.7860 N.3     9  ILE9       -0.1245
     32  CA        -1.4540   27.2510    1.9560 C.3     9  ILE9        0.1561
     33  C         -0.4160   26.1310    2.0420 C.2     9  ILE9        0.2260
     34  O          0.1810   25.7540    1.0300 O.2     9  ILE9       -0.2867
     35  CB        -0.8160   28.5970    2.3740 C.3     9  ILE9        0.0252
     36  CG1       -1.8260   29.7240    2.1700 C.3     9  ILE9        0.0019
     37  CG2        0.4420   28.8660    1.5590 C.3     9  ILE9        0.0019
     38  CD1       -1.3760   31.0600    2.7130 C.3     9  ILE9        0.0001
     39  N          1.1210   23.9280   -0.9370 N.3    13  ILE13      -0.1245
     40  CA         2.5610   24.1370   -1.0360 C.3    13  ILE13       0.1561
     41  C          3.2380   23.6420    0.2370 C.2    13  ILE13       0.2260
     42  O          3.5720   24.4330    1.1140 O.2    13  ILE13      -0.2867
     43  CB         2.8840   25.6330   -1.2140 C.3    13  ILE13       0.0252
     44  CG1        2.0180   26.2220   -2.3280 C.3    13  ILE13       0.0019
     45  CG2        4.3600   25.8170   -1.5310 C.3    13  ILE13       0.0019
     46  CD1        2.0390   27.7300   -2.3840 C.3    13  ILE13       0.0001
     47  N          6.3600   22.5990    1.3980 N.3    15  GLY15      -0.1210
     48  CA         7.5190   23.3050    1.9230 C.3    15  GLY15       0.1956
     49  C          7.3340   24.8090    2.0060 C.2    15  GLY15       0.2612
     50  O          8.1920   25.5730    1.5580 O.2    15  GLY15      -0.2717
     51  N          6.2230   25.2380    2.5980 N.am   16  SER16      -0.1952
     52  CA         5.9240   26.6620    2.7180 C.3    16  SER16       0.1924
     53  C          5.7880   27.1550    4.1550 C.2    16  SER16       0.2314
     54  O          5.8010   28.3610    4.4060 O.2    16  SER16      -0.2863
     55  CB         4.6380   26.9800    1.9590 C.3    16  SER16       0.2116
     56  OG         4.3000   28.3450    2.0990 O.3    16  SER16      -0.2180
     57  N          7.6080   30.1490    5.5620 N.3    19  LEU19      -0.1231
     58  CA         7.4090   31.4520    4.9360 C.3    19  LEU19       0.1693
     59  C          6.2400   32.2820    5.4760 C.2    19  LEU19       0.2592
     60  O          6.0920   33.4490    5.1050 O.2    19  LEU19      -0.2718
     61  CB         7.3020   31.2980    3.4100 C.3    19  LEU19       0.0284
     62  CG         8.5370   30.6680    2.7450 C.3    19  LEU19       0.0019
     63  CD1        8.4000   29.1530    2.7810 C.3    19  LEU19       0.0001
     64  CD2        8.6820   31.1400    1.3060 C.3    19  LEU19       0.0001
     65  N          5.4150   31.6920    6.3430 N.am   20  MET20      -0.1965
     66  CA         4.2930   32.4200    6.9480 C.3    20  MET20       0.1736
     67  C          4.8170   33.1590    8.1700 C.2    20  MET20       0.2616
     68  O          4.0610   33.7860    8.9120 O.2    20  MET20      -0.2715
     69  CB         3.1810   31.4680    7.3990 C.3    20  MET20       0.0427
     70  CG         2.1900   31.0930    6.3200 C.3    20  MET20       0.0599
     71  SD         2.8330   29.8980    5.1630 S.3    20  MET20      -0.1393
     72  CE         1.9550   28.4260    5.7010 C.3    20  MET20       0.0692
     73  N          6.1280   33.0620    8.3570 N.am   21  ASP21      -0.1971
     74  CA         6.8500   33.6640    9.4710 C.3    21  ASP21       0.1709
     75  C          6.4610   35.1100    9.8040 C.2    21  ASP21       0.2293
     76  O          5.6410   35.7240    9.1170 O.2    21  ASP21      -0.2864
     77  CB         8.3520   33.5760    9.1720 C.3    21  ASP21       0.1436
     78  CG         9.2100   34.0210   10.3340 C.2    21  ASP21       0.3671
     79  OD1        9.0370   33.4660   11.4420 O.co2  21  ASP21      -0.2456
     80  OD2       10.0600   34.9210   10.1360 O.co2  21  ASP21      -0.2456
     81  N          7.5610   37.5330    9.0850 N.3    23  ASN23      -0.1225
     82  CA         7.7590   38.3600    7.9010 C.3    23  ASN23       0.1785
     83  C          6.4830   38.8010    7.1920 C.2    23  ASN23       0.2597
     84  O          5.3680   38.5050    7.6320 O.2    23  ASN23      -0.2718
     85  CB         8.6650   37.6350    6.8970 C.3    23  ASN23       0.1169
     86  CG         7.9430   36.5320    6.1390 C.2    23  ASN23       0.2627
     87  OD1        6.9420   36.7780    5.4600 O.2    23  ASN23      -0.2716
     88  ND2        8.4530   35.3110    6.2450 N.am   23  ASN23      -0.0877
     89  N          6.6920   39.5120    6.0830 N.am   24  ASN24      -0.1960
     90  CA         5.6480   40.0590    5.2160 C.3    24  ASN24       0.1819
     91  C          6.2600   40.1020    3.8160 C.2    24  ASN24       0.2621
     92  O          7.4810   40.1520    3.6810 O.2    24  ASN24      -0.2715
     93  CB         5.2790   41.4700    5.6780 C.3    24  ASN24       0.1195
     94  CG         4.6890   41.4830    7.0740 C.2    24  ASN24       0.2630
     95  OD1        3.5380   41.1020    7.2710 O.2    24  ASN24      -0.2716
     96  ND2        5.4850   41.9060    8.0570 N.am   24  ASN24      -0.0877
     97  N          5.4360   40.0850    2.7750 N.am   25  TYR25      -0.1974
     98  CA         5.9820   40.0870    1.4260 C.3    25  TYR25       0.1639
     99  C          5.3540   41.1010    0.4790 C.2    25  TYR25       0.2290
    100  O          4.1340   41.2260    0.3870 O.2    25  TYR25      -0.2864
    101  CB         5.8700   38.6790    0.8360 C.3    25  TYR25       0.0560
    102  CG         6.4750   38.4930   -0.5410 C.ar   25  TYR25      -0.0198
    103  CD1        5.8900   39.0690   -1.6700 C.ar   25  TYR25      -0.0009
    104  CD2        7.6080   37.6970   -0.7220 C.ar   25  TYR25      -0.0009
    105  CE1        6.4130   38.8530   -2.9460 C.ar   25  TYR25       0.0417
    106  CE2        8.1420   37.4720   -1.9970 C.ar   25  TYR25       0.0417
    107  CZ         7.5390   38.0510   -3.1050 C.ar   25  TYR25       0.1957
    108  OH         8.0480   37.8180   -4.3670 O.3    25  TYR25      -0.2866
    109  N          1.1790   41.3290    0.5770 N.3    29  CYS29      -0.1221
    110  CA         1.2360   40.0890    1.3410 C.3    29  CYS29       0.1808
    111  C          1.5400   40.3550    2.8130 C.2    29  CYS29       0.2601
    112  O          2.6890   40.4670    3.2380 O.2    29  CYS29      -0.2717
    113  CB         2.2560   39.1280    0.7360 C.3    29  CYS29       0.0970
    114  SG         1.8470   38.5440   -0.9440 S.3    29  CYS29      -0.0800
    115  N          0.4600   40.4360    3.5760 N.am   30  GLY30      -0.1957
    116  CA         0.5110   40.7220    4.9890 C.3    30  GLY30       0.1869
    117  C         -0.8160   41.4260    5.1500 C.2    30  GLY30       0.2309
    118  O         -1.7690   41.0880    4.4430 O.2    30  GLY30      -0.2863
    119  N          3.4250   37.1430   -7.2580 N.3    41  LEU41      -0.1245
    120  CA         3.0590   36.6490   -5.9350 C.3    41  LEU41       0.1561
    121  C          2.3300   37.7360   -5.1580 C.2    41  LEU41       0.2260
    122  O          1.2780   37.4980   -4.5600 O.2    41  LEU41      -0.2867
    123  CB         4.3140   36.2360   -5.1570 C.3    41  LEU41       0.0270
    124  CG         4.2740   34.9980   -4.2500 C.3    41  LEU41       0.0019
    125  CD1        5.3890   35.1210   -3.2230 C.3    41  LEU41       0.0001
    126  CD2        2.9260   34.8630   -3.5500 C.3    41  LEU41       0.0001
    127  N         -1.8340   38.3170   -3.5790 N.3    45  CYS45      -0.1235
    128  CA        -2.3060   38.8720   -2.3150 C.3    45  CYS45       0.1677
    129  C         -3.2130   40.0670   -2.5690 C.2    45  CYS45       0.2270
    130  O         -4.2140   40.2480   -1.8780 O.2    45  CYS45      -0.2867
    131  CB        -1.1210   39.2820   -1.4070 C.3    45  CYS45       0.0956
    132  SG        -0.0840   37.8780   -0.8610 S.3    45  CYS45      -0.0801
    133  N        -11.0060   37.9820    7.7770 N.3    69  TYR69      -0.1241
    134  CA       -10.0180   37.0610    8.3310 C.3    69  TYR69       0.1605
    135  C        -10.4870   36.3950    9.6310 C.2    69  TYR69       0.2264
    136  O         -9.8990   35.4060   10.0610 O.2    69  TYR69      -0.2867
    137  CB        -8.6860   37.7670    8.5860 C.3    69  TYR69       0.0534
    138  CG        -7.7730   37.8210    7.3770 C.ar   69  TYR69      -0.0201
    139  CD1       -7.4290   36.6570    6.6810 C.ar   69  TYR69      -0.0009
    140  CD2       -7.2320   39.0250    6.9460 C.ar   69  TYR69      -0.0009
    141  CE1       -6.5630   36.6970    5.5830 C.ar   69  TYR69       0.0417
    142  CE2       -6.3680   39.0790    5.8510 C.ar   69  TYR69       0.0417
    143  CZ        -6.0380   37.9170    5.1760 C.ar   69  TYR69       0.1957
    144  OH        -5.1950   37.9870    4.0890 O.3    69  TYR69      -0.2866
    145  N         -0.7020   31.3660   -5.3090 N.3   106  PHE106     -0.1227
    146  CA         0.6040   31.3400   -4.6460 C.3   106  PHE106      0.1736
    147  C          1.4860   30.2080   -5.1610 C.2   106  PHE106      0.2596
    148  O          2.6700   30.4040   -5.4470 O.2   106  PHE106     -0.2718
    149  CB         0.4570   31.1400   -3.1310 C.3   106  PHE106      0.0547
    150  CG        -0.2070   32.2810   -2.4100 C.ar  106  PHE106     -0.0202
    151  CD1       -0.1550   33.5750   -2.9090 C.ar  106  PHE106     -0.0042
    152  CD2       -0.8290   32.0610   -1.1810 C.ar  106  PHE106     -0.0042
    153  CE1       -0.7080   34.6360   -2.1950 C.ar  106  PHE106     -0.0003
    154  CE2       -1.3830   33.1110   -0.4580 C.ar  106  PHE106     -0.0003
    155  CZ        -1.3220   34.4010   -0.9650 C.ar  106  PHE106     -0.0000
    156  N          0.9050   29.0170   -5.2530 N.am  107  SER107     -0.1938
    157  CA         1.6420   27.8400   -5.6960 C.3   107  SER107      0.2055
    158  C          2.2180   27.9760   -7.1040 C.2   107  SER107      0.2643
    159  O          3.1860   27.3030   -7.4460 O.2   107  SER107     -0.2714
    160  CB         0.7350   26.6130   -5.6460 C.3   107  SER107      0.2130
    161  OG        -0.2500   26.6870   -6.6620 O.3   107  SER107     -0.2179
    162  N          1.6280   28.8510   -7.9110 N.am  108  LYS108     -0.1963
    163  CA         2.0770   29.0430   -9.2870 C.3   108  LYS108      0.1728
    164  C          3.0070   30.2340   -9.4930 C.2   108  LYS108      0.2616
    165  O          3.6560   30.3360  -10.5300 O.2   108  LYS108     -0.2715
    166  CB         0.8690   29.2160  -10.2140 C.3   108  LYS108      0.0311
    167  CG        -0.0870   28.0320  -10.2620 C.3   108  LYS108      0.0038
    168  CD        -1.3380   28.4000  -11.0550 C.3   108  LYS108      0.0206
    169  CE        -2.2250   27.1930  -11.3090 C.3   108  LYS108      0.1093
    170  NZ        -3.4740   27.5780  -12.0260 N.3   108  LYS108     -0.1314
    171  N          3.0700   31.1350   -8.5190 N.am  109  ALA109     -0.1964
    172  CA         3.9090   32.3180   -8.6540 C.3   109  ALA109      0.1713
    173  C          5.3310   32.1150   -8.1550 C.2   109  ALA109      0.2458
    174  O          5.5790   31.3210   -7.2510 O.2   109  ALA109     -0.2730
    175  CB         3.2700   33.4900   -7.9330 C.3   109  ALA109      0.0333
    176  N          6.2890   32.8280   -8.7570 N.am  110  PRO110     -0.2716
    177  CA         7.7000   32.7320   -8.3710 C.3   110  PRO110      0.1536
    178  C          7.9070   33.4700   -7.0550 C.2   110  PRO110      0.2598
    179  O          7.2110   34.4440   -6.7740 O.2   110  PRO110     -0.2715
    180  CB         8.4320   33.4320   -9.5210 C.3   110  PRO110      0.0310
    181  CG         7.4470   33.3810  -10.6730 C.3   110  PRO110      0.0237
    182  CD         6.1340   33.6200   -9.9900 C.3   110  PRO110      0.0939
    183  N          8.8590   33.0120   -6.2500 N.am  111  TYR111     -0.1974
    184  CA         9.1450   33.6660   -4.9810 C.3   111  TYR111      0.1639
    185  C         10.4430   34.4700   -5.0590 C.2   111  TYR111      0.2290
    186  O         11.5290   33.9030   -5.1780 O.2   111  TYR111     -0.2864
    187  CB         9.2380   32.6310   -3.8600 C.3   111  TYR111      0.0560
    188  CG         9.7050   33.2190   -2.5540 C.ar  111  TYR111     -0.0198
    189  CD1       11.0510   33.1610   -2.1820 C.ar  111  TYR111     -0.0009
    190  CD2        8.8120   33.8700   -1.7030 C.ar  111  TYR111     -0.0009
    191  CE1       11.4930   33.7360   -0.9950 C.ar  111  TYR111      0.0417
    192  CE2        9.2460   34.4520   -0.5130 C.ar  111  TYR111      0.0417
    193  CZ        10.5860   34.3810   -0.1650 C.ar  111  TYR111      0.1957
    194  OH        11.0180   34.9510    1.0100 O.3   111  TYR111     -0.2866
@<TRIPOS>BOND
     1   170   169    1
     2   169   168    1
     3   168   167    1
     4   181   182    1
     5   181   180    1
     6   165   164    2
     7   167   166    1
     8   166   163    1
     9   182   176    1
    10   180   177    1
    11   164   163    1
    12   164   171   am
    13   163   162    1
    14   176   177    1
    15   176   173   am
    16   172   171    1
    17   172   173    1
    18   172   175    1
    19   177   178    1
    20   173   174    2
    21   162   158   am
    22   159   158    2
    23   119   120    1
    24   158   157    1
    25   178   179    2
    26   178   183   am
    27   161   160    1
    28   183   184    1
    29   120   121    1
    30   120   123    1
    31   157   160    1
    32   157   156    1
    33   148   147    2
    34   145   146    1
    35   156   147   am
    36   186   185    2
    37   147   146    1
    38   121   122    2
    39   123   124    1
    40   185   184    1
    41   184   187    1
    42   146   149    1
    43   108   107    1
    44   124   126    1
    45   124   125    1
    46   187   188    1
    47   127   128    1
    48   149   150    1
    49   107   105   ar
    50   107   106   ar
    51   105   103   ar
    52   151   150   ar
    53   151   153   ar
    54   129   128    1
    55   129   130    2
    56   188   189   ar
    57   188   190   ar
    58   150   152   ar
    59    46    44    1
    60    44    43    1
    61   128   131    1
    62   153   155   ar
    63   189   191   ar
    64   106   104   ar
    65   190   192   ar
    66   103   102   ar
    67    45    43    1
    68   131   132    1
    69    43    40    1
    70   152   154   ar
    71    40    39    1
    72    40    41    1
    73   191   193   ar
    74   155   154   ar
    75   114   132    1
    76   114   113    1
    77   104   102   ar
    78   102   101    1
    79   192   193   ar
    80   193   194    1
    81    41    42    2
    82   100    99    2
    83    99    98    1
    84   109   110    1
    85   113   110    1
    86   101    98    1
    87    34    33    2
    88    64    62    1
    89   110   111    1
    90    47    48    1
    91    98    97    1
    92    19    17   ar
    93    19    18   ar
    94    17    15   ar
    95    50    49    2
    96    37    35    1
    97    48    49    1
    98    32    33    1
    99    32    35    1
   100    32    31    1
   101    55    56    1
   102    55    52    1
   103    49    51   am
   104    36    35    1
   105    36    38    1
   106    51    52    1
   107    18    16   ar
   108    52    53    1
   109    62    63    1
   110    62    61    1
   111    97    91   am
   112    15    14   ar
   113   111   112    2
   114   111   115   am
   115    61    58    1
   116   115   116    1
   117    92    91    2
   118    91    90    1
   119    16    14   ar
   120    14    13    1
   121   144   143    1
   122    53    54    2
   123    12    11    2
   124   118   117    2
   125    58    59    1
   126    58    57    1
   127   116   117    1
   128    60    59    2
   129    71    72    1
   130    71    70    1
   131   143   141   ar
   132   143   142   ar
   133    90    93    1
   134    90    89    1
   135    13    10    1
   136    11    10    1
   137    11    20   am
   138    10     9    1
   139    87    86    2
   140    59    65   am
   141    23    22    2
   142   141   139   ar
   143    93    94    1
   144   142   140   ar
   145    89    83   am
   146    86    88   am
   147    86    85    1
   148    22    21    1
   149    70    69    1
   150    65    66    1
   151    20    21    1
   152    21    24    1
   153   139   138   ar
   154    85    82    1
   155   140   138   ar
   156    66    69    1
   157    66    67    1
   158    94    95    2
   159    94    96   am
   160    83    84    2
   161    83    82    1
   162   138   137    1
   163   133   134    1
   164    82    81    1
   165    24    25    1
   166    67    73   am
   167    67    68    2
   168    25    26    1
   169     7     6    1
   170   134   137    1
   171   134   135    1
   172    73    74    1
   173     4     3    2
   174     2     3    1
   175     2     1    1
   176     2     5    1
   177    76    75    2
   178    77    74    1
   179    77    78    1
   180    74    75    1
   181    26    27    1
   182   135   136    2
   183     6     5    1
   184     6     8    1
   185    80    78   ar
   186    78    79   ar
   187    27    28    2
   188    30    28    1
   189    28    29    1
