@<TRIPOS>MOLECULE
tmp/2b05C00.pdb
 169 161 0 0 0
SMALL
GASTEIGER

@<TRIPOS>ATOM
      1  N        -52.0710   -3.0160  -31.7960 N.3    49  LYS49      -0.1245
      2  CA       -51.5320   -3.3540  -30.4920 C.3    49  LYS49       0.1561
      3  C        -52.0460   -4.7420  -30.0490 C.2    49  LYS49       0.2260
      4  O        -51.2990   -5.5270  -29.4890 O.2    49  LYS49      -0.2867
      5  CB       -51.9300   -2.2980  -29.4750 C.3    49  LYS49       0.0271
      6  CG       -51.2010   -2.4340  -28.1320 C.3    49  LYS49       0.0035
      7  CD       -49.8340   -1.6750  -28.1360 C.3    49  LYS49       0.0206
      8  CE       -48.8600   -2.1960  -27.0540 C.3    49  LYS49       0.1093
      9  NZ       -49.3330   -1.9470  -25.6680 N.3    49  LYS49      -0.1314
     10  N        -46.9140  -11.4930  -29.2770 N.3    56  ARG56      -0.1245
     11  CA       -45.8560  -11.2710  -28.2830 C.3    56  ARG56       0.1563
     12  C        -46.1130  -12.1110  -27.0620 C.2    56  ARG56       0.2260
     13  O        -45.1910  -12.6730  -26.4740 O.2    56  ARG56      -0.2867
     14  CB       -45.7390   -9.8090  -27.8570 C.3    56  ARG56       0.0307
     15  CG       -45.2790   -8.8430  -28.9400 C.3    56  ARG56       0.0489
     16  CD       -45.4960   -7.3900  -28.5280 C.3    56  ARG56       0.2205
     17  NE       -44.5160   -6.9470  -27.5340 N.pl3  56  ARG56      -0.0865
     18  CZ       -44.7700   -6.0950  -26.5400 C.cat  56  ARG56       0.5346
     19  NH1      -45.9660   -5.5710  -26.3960 N.pl3  56  ARG56       0.1354
     20  NH2      -43.8130   -5.7590  -25.6880 N.pl3  56  ARG56       0.1354
     21  N        -43.6370    7.5300  -31.9600 N.3   124  LYS124     -0.1245
     22  CA       -43.6750    6.6260  -30.8230 C.3   124  LYS124      0.1561
     23  C        -44.1120    5.2400  -31.2900 C.2   124  LYS124      0.2260
     24  O        -43.5160    4.2500  -30.8840 O.2   124  LYS124     -0.2867
     25  CB       -44.6130    7.1350  -29.7320 C.3   124  LYS124      0.0271
     26  CG       -44.7080    6.1940  -28.5220 C.3   124  LYS124      0.0035
     27  CD       -45.7720    6.6480  -27.5590 C.3   124  LYS124      0.0206
     28  CE       -46.3810    5.4470  -26.8210 C.3   124  LYS124      0.1093
     29  NZ       -47.0520    4.5210  -27.7880 N.3   124  LYS124     -0.1314
     30  N        -39.1810   -1.8960  -31.4670 N.3   131  ARG131     -0.1231
     31  CA       -38.8460   -2.5200  -30.1920 C.3   131  ARG131      0.1694
     32  C        -39.4820   -3.9300  -30.1380 C.2   131  ARG131      0.2592
     33  O        -38.8860   -4.8650  -29.5830 O.2   131  ARG131     -0.2718
     34  CB       -39.2550   -1.6390  -29.0110 C.3   131  ARG131      0.0321
     35  CG       -39.2470   -2.3140  -27.6130 C.3   131  ARG131      0.0489
     36  CD       -39.4330   -1.3320  -26.4200 C.3   131  ARG131      0.2205
     37  NE       -40.6480   -0.5370  -26.5210 N.pl3 131  ARG131     -0.0865
     38  CZ       -41.8570   -0.8960  -26.0660 C.cat 131  ARG131      0.5346
     39  NH1      -42.0560   -2.0380  -25.4390 N.pl3 131  ARG131      0.1354
     40  NH2      -42.8920   -0.0940  -26.2510 N.pl3 131  ARG131      0.1354
     41  N        -40.6690   -4.0910  -30.7220 N.am  132  TYR132     -0.1976
     42  CA       -41.2870   -5.4150  -30.7710 C.3   132  TYR132      0.1639
     43  C        -40.4570   -6.3690  -31.6600 C.2   132  TYR132      0.2290
     44  O        -40.2200   -7.5340  -31.3180 O.2   132  TYR132     -0.2864
     45  CB       -42.7290   -5.3290  -31.2610 C.3   132  TYR132      0.0560
     46  CG       -43.5860   -4.4090  -30.4190 C.ar  132  TYR132     -0.0198
     47  CD1      -43.3000   -4.2010  -29.0710 C.ar  132  TYR132     -0.0009
     48  CD2      -44.6990   -3.7560  -30.9760 C.ar  132  TYR132     -0.0009
     49  CE1      -44.0760   -3.3610  -28.3150 C.ar  132  TYR132      0.0417
     50  CE2      -45.4860   -2.9240  -30.2150 C.ar  132  TYR132      0.0417
     51  CZ       -45.1630   -2.7260  -28.8950 C.ar  132  TYR132      0.1957
     52  OH       -45.9530   -1.9080  -28.1280 O.3   132  TYR132     -0.2866
     53  N        -50.5210   13.5580  -21.9900 N.3   169  PRO169     -0.2116
     54  CA       -50.5500   12.0920  -22.0610 C.3   169  PRO169      0.1372
     55  C        -49.6660   11.4590  -23.1310 C.2   169  PRO169      0.2244
     56  O        -48.9620   10.4910  -22.8430 O.2   169  PRO169     -0.2868
     57  CB       -52.0290   11.7480  -22.2870 C.3   169  PRO169      0.0268
     58  CG       -52.7450   13.0570  -22.4920 C.3   169  PRO169      0.0207
     59  CD       -51.8720   14.1370  -21.9050 C.3   169  PRO169      0.0892
     60  N        -46.6260    9.0750  -22.2190 N.3   173  GLY173     -0.1225
     61  CA       -46.6380    7.7000  -22.7010 C.3   173  GLY173      0.1811
     62  C        -45.3540    7.3880  -23.4650 C.2   173  GLY173      0.2280
     63  O        -44.8500    6.2550  -23.4410 O.2   173  GLY173     -0.2866
     64  N        -42.7210    6.8220  -21.0210 N.3   176  LEU176     -0.1231
     65  CA       -42.9120    5.5120  -20.4270 C.3   176  LEU176      0.1693
     66  C        -42.3120    4.4540  -21.3420 C.2   176  LEU176      0.2592
     67  O        -41.4640    3.6840  -20.9080 O.2   176  LEU176     -0.2718
     68  CB       -44.3890    5.2370  -20.1210 C.3   176  LEU176      0.0284
     69  CG       -44.6990    3.8260  -19.6160 C.3   176  LEU176      0.0019
     70  CD1      -44.1380    3.5840  -18.2420 C.3   176  LEU176      0.0001
     71  CD2      -46.1940    3.5810  -19.6440 C.3   176  LEU176      0.0001
     72  N        -42.7230    4.4300  -22.6060 N.am  177  ASN177     -0.1974
     73  CA       -42.2230    3.4030  -23.5050 C.3   177  ASN177      0.1688
     74  C        -40.7360    3.5240  -23.8260 C.2   177  ASN177      0.2292
     75  O        -40.0240    2.5140  -23.9110 O.2   177  ASN177     -0.2864
     76  CB       -43.0490    3.3210  -24.7920 C.3   177  ASN177      0.1181
     77  CG       -44.3890    2.6480  -24.5630 C.2   177  ASN177      0.2629
     78  OD1      -44.7900    2.4410  -23.3990 O.2   177  ASN177     -0.2716
     79  ND2      -45.1010    2.3010  -25.6710 N.am  177  ASN177     -0.0877
     80  N        -38.7760    2.0950  -20.9720 N.3   180  VAL180     -0.1245
     81  CA       -38.8360    0.6430  -21.0590 C.3   180  VAL180      0.1561
     82  C        -37.8220    0.1760  -22.0970 C.2   180  VAL180      0.2260
     83  O        -37.0750   -0.7810  -21.8760 O.2   180  VAL180     -0.2867
     84  CB       -40.2540    0.1350  -21.4630 C.3   180  VAL180      0.0252
     85  CG1      -40.2350   -1.3520  -21.9510 C.3   180  VAL180      0.0019
     86  CG2      -41.2340    0.2810  -20.3090 C.3   180  VAL180      0.0019
     87  N        -34.4080    0.2360  -20.6130 N.3   183  TYR183     -0.1227
     88  CA       -34.1880   -0.8100  -19.6290 C.3   183  TYR183      0.1736
     89  C        -34.1070   -2.2070  -20.2300 C.2   183  TYR183      0.2595
     90  O        -33.1310   -2.9100  -20.0100 O.2   183  TYR183     -0.2718
     91  CB       -35.2480   -0.7990  -18.5350 C.3   183  TYR183      0.0548
     92  CG       -34.8350   -1.6490  -17.3590 C.ar  183  TYR183     -0.0200
     93  CD1      -34.0410   -1.1130  -16.3590 C.ar  183  TYR183     -0.0009
     94  CD2      -35.2220   -2.9870  -17.2520 C.ar  183  TYR183     -0.0009
     95  CE1      -33.6380   -1.8820  -15.2660 C.ar  183  TYR183      0.0417
     96  CE2      -34.8330   -3.7690  -16.1610 C.ar  183  TYR183      0.0417
     97  CZ       -34.0370   -3.2070  -15.1710 C.ar  183  TYR183      0.1957
     98  OH       -33.6120   -3.9330  -14.0760 O.3   183  TYR183     -0.2866
     99  N        -35.1400   -2.6090  -20.9610 N.am  184  GLU184     -0.1979
    100  CA       -35.2590   -3.9850  -21.4690 C.3   184  GLU184      0.1602
    101  C        -34.4500   -4.2550  -22.7360 C.2   184  GLU184      0.2287
    102  O        -34.0290   -5.3850  -22.9760 O.2   184  GLU184     -0.2864
    103  CB       -36.7110   -4.3310  -21.8110 C.3   184  GLU184      0.0415
    104  CG       -37.6970   -3.9410  -20.7490 C.3   184  GLU184      0.1163
    105  CD       -38.4420   -5.1320  -20.2070 C.2   184  GLU184      0.3649
    106  OE1      -39.3380   -5.6280  -20.9620 O.co2 184  GLU184     -0.2457
    107  OE2      -38.1290   -5.5430  -19.0430 O.co2 184  GLU184     -0.2457
    108  N        -52.6400    8.2010  -14.6990 N.3   220  LEU220     -0.1231
    109  CA       -52.5310    6.7700  -14.8410 C.3   220  LEU220      0.1693
    110  C        -51.1360    6.4980  -15.3850 C.2   220  LEU220      0.2591
    111  O        -50.4230    5.6540  -14.8590 O.2   220  LEU220     -0.2718
    112  CB       -53.6430    6.2050  -15.7240 C.3   220  LEU220      0.0284
    113  CG       -53.6720    4.7060  -16.1190 C.3   220  LEU220      0.0019
    114  CD1      -55.1090    4.1700  -16.3680 C.3   220  LEU220      0.0001
    115  CD2      -52.7500    4.3550  -17.3300 C.3   220  LEU220      0.0001
    116  N        -50.7250    7.2400  -16.4170 N.am  221  ILE221     -0.1980
    117  CA       -49.4010    7.0200  -17.0010 C.3   221  ILE221      0.1595
    118  C        -48.3420    7.3900  -15.9720 C.2   221  ILE221      0.2287
    119  O        -47.3030    6.7260  -15.8750 O.2   221  ILE221     -0.2864
    120  CB       -49.1980    7.7780  -18.3090 C.3   221  ILE221      0.0276
    121  CG1      -50.3200    7.4530  -19.2840 C.3   221  ILE221      0.0022
    122  CG2      -47.8950    7.3890  -18.9530 C.3   221  ILE221      0.0022
    123  CD1      -50.3180    8.3160  -20.5460 C.3   221  ILE221      0.0001
    124  N        -47.7800    4.6220  -13.7690 N.3   224  LEU224     -0.1245
    125  CA       -46.9920    3.5710  -14.4030 C.3   224  LEU224      0.1561
    126  C        -45.5030    3.9310  -14.4050 C.2   224  LEU224      0.2260
    127  O        -44.6510    3.0510  -14.2100 O.2   224  LEU224     -0.2867
    128  CB       -47.4820    3.2550  -15.8060 C.3   224  LEU224      0.0270
    129  CG       -48.8650    2.6300  -15.9350 C.3   224  LEU224      0.0019
    130  CD1      -49.2180    2.5000  -17.4210 C.3   224  LEU224      0.0001
    131  CD2      -48.9660    1.2760  -15.2300 C.3   224  LEU224      0.0001
    132  N        -44.4000    3.1840  -10.9550 N.3   227  ASP227     -0.1225
    133  CA       -44.3790    1.7290  -10.7600 C.3   227  ASP227      0.1805
    134  C        -43.1160    1.1070  -11.3390 C.2   227  ASP227      0.2597
    135  O        -42.4170    0.3610  -10.6400 O.2   227  ASP227     -0.2718
    136  CB       -45.5820    1.0460  -11.4030 C.3   227  ASP227      0.1424
    137  CG       -46.8270    1.1300  -10.5550 C.2   227  ASP227      0.3668
    138  OD1      -46.7190    1.5380   -9.3740 O.co2 227  ASP227     -0.2456
    139  OD2      -47.9160    0.7940  -11.0970 O.co2 227  ASP227     -0.2456
    140  N        -42.8240    1.4110  -12.6060 N.am  228  ASN228     -0.1974
    141  CA       -41.5720    0.9910  -13.2080 C.3   228  ASN228      0.1688
    142  C        -40.3560    1.4870  -12.4240 C.2   228  ASN228      0.2292
    143  O        -39.4080    0.7340  -12.2390 O.2   228  ASN228     -0.2864
    144  CB       -41.4700    1.4030  -14.6800 C.3   228  ASN228      0.1181
    145  CG       -42.3400    0.5520  -15.6050 C.2   228  ASN228      0.2629
    146  OD1      -42.8070   -0.5230  -15.2360 O.2   228  ASN228     -0.2716
    147  ND2      -42.5550    1.0350  -16.8180 N.am  228  ASN228     -0.0877
    148  N        -39.9200   -0.6240   -9.2600 N.3   231  LEU231     -0.1231
    149  CA       -39.3910   -1.9240   -9.6580 C.3   231  LEU231      0.1693
    150  C        -37.9080   -1.8380  -10.0210 C.2   231  LEU231      0.2592
    151  O        -37.1210   -2.6660   -9.5720 O.2   231  LEU231     -0.2718
    152  CB       -40.1880   -2.5170  -10.8230 C.3   231  LEU231      0.0284
    153  CG       -40.4340   -4.0350  -10.7200 C.3   231  LEU231      0.0019
    154  CD1      -41.3390   -4.3070   -9.5520 C.3   231  LEU231      0.0001
    155  CD2      -41.0120   -4.6840  -11.9630 C.3   231  LEU231      0.0001
    156  N        -37.5230   -0.8260  -10.8030 N.am  232  TRP232     -0.1976
    157  CA       -36.1340   -0.7070  -11.2710 C.3   232  TRP232      0.1640
    158  C        -35.1430   -0.3180  -10.1900 C.2   232  TRP232      0.2290
    159  O        -33.9300   -0.4090  -10.3900 O.2   232  TRP232     -0.2864
    160  CB       -36.0180    0.2380  -12.4660 C.3   232  TRP232      0.0576
    161  CG       -36.7640   -0.2580  -13.7020 C.ar  232  TRP232      0.0006
    162  CD1      -37.1320   -1.5410  -13.9790 C.ar  232  TRP232      0.0946
    163  CD2      -37.2030    0.5320  -14.8080 C.ar  232  TRP232      0.0152
    164  NE1      -37.7990   -1.6010  -15.1860 N.ar  232  TRP232     -0.2442
    165  CE2      -37.8480   -0.3410  -15.7200 C.ar  232  TRP232      0.0810
    166  CE3      -37.1160    1.8910  -15.1220 C.ar  232  TRP232      0.0012
    167  CZ2      -38.4030    0.1070  -16.9300 C.ar  232  TRP232      0.0191
    168  CZ3      -37.6800    2.3390  -16.3230 C.ar  232  TRP232      0.0001
    169  CH2      -38.3130    1.4450  -17.2110 C.ar  232  TRP232      0.0015
@<TRIPOS>BOND
     1    21    22    1
     2     1     2    1
     3    43    44    2
     4    43    42    1
     5    30    31    1
     6    23    24    2
     7    23    22    1
     8    45    42    1
     9    45    46    1
    10    48    46   ar
    11    48    50   ar
    12    22    25    1
    13    42    41    1
    14    41    32   am
    15     2     3    1
    16     2     5    1
    17    46    47   ar
    18    50    51   ar
    19    31    32    1
    20    31    34    1
    21    32    33    2
    22     3     4    2
    23    25    26    1
    24     5     6    1
    25    10    11    1
    26    47    49   ar
    27    34    35    1
    28    15    16    1
    29    15    14    1
    30    51    49   ar
    31    51    52    1
    32    16    17    1
    33    26    27    1
    34    11    14    1
    35    11    12    1
    36     7     6    1
    37     7     8    1
    38    29    28    1
    39    35    36    1
    40    27    28    1
    41    17    18    2
    42    12    13    2
    43     8     9    1
    44    18    19    1
    45    18    20    1
    46    37    36    1
    47    37    38    2
    48    40    38    1
    49    38    39    1
    50    79    77   am
    51    76    77    1
    52    76    73    1
    53    77    78    2
    54    75    74    2
    55    74    73    1
    56    73    72    1
    57    62    63    2
    58    62    61    1
    59    55    56    2
    60    55    54    1
    61   102   101    2
    62   101   100    1
    63    61    60    1
    64    72    66   am
    65    58    57    1
    66    58    59    1
    67    57    54    1
    68    82    83    2
    69    82    81    1
    70    54    53    1
    71    53    59    1
    72    85    84    1
    73   103   100    1
    74   103   104    1
    75   100    99    1
    76    84    81    1
    77    84    86    1
    78    66    67    2
    79    66    65    1
    80    81    80    1
    81    64    65    1
    82   106   105   ar
    83    99    89   am
    84   104   105    1
    85    87    88    1
    86   123   121    1
    87    65    68    1
    88    89    90    2
    89    89    88    1
    90   105   107   ar
    91    68    69    1
    92    71    69    1
    93    88    91    1
    94    69    70    1
    95   121   120    1
    96   122   120    1
    97    91    92    1
    98   120   117    1
    99   130   129    1
   100    92    94   ar
   101    92    93   ar
   102   115   113    1
   103    94    96   ar
   104   169   167   ar
   105   169   168   ar
   106   117   116    1
   107   117   118    1
   108   167   165   ar
   109   147   145   am
   110   116   110   am
   111   114   113    1
   112    93    95   ar
   113   168   166   ar
   114    96    97   ar
   115   113   112    1
   116   118   119    2
   117   129   128    1
   118   129   131    1
   119   128   125    1
   120   112   109    1
   121   165   164   ar
   122   165   163   ar
   123   145   146    2
   124   145   144    1
   125   110   111    2
   126   110   109    1
   127    95    97   ar
   128   164   162   ar
   129    97    98    1
   130   166   163   ar
   131   109   108    1
   132   163   161   ar
   133   144   141    1
   134   126   125    1
   135   126   127    2
   136   125   124    1
   137   162   161   ar
   138   161   160    1
   139   141   140    1
   140   141   142    1
   141   140   134   am
   142   160   157    1
   143   142   143    2
   144   155   153    1
   145   136   133    1
   146   136   137    1
   147   134   133    1
   148   134   135    2
   149   157   156    1
   150   157   158    1
   151   139   137   ar
   152   132   133    1
   153   152   153    1
   154   152   149    1
   155   156   150   am
   156   153   154    1
   157   137   138   ar
   158   159   158    2
   159   150   149    1
   160   150   151    2
   161   149   148    1
