@<TRIPOS>MOLECULE
tmp/2b05I00.pdb
 172 164 0 0 0
SMALL
GASTEIGER

@<TRIPOS>ATOM
      1  N        -12.6330  -16.7960 -101.6640 N.3    47  LYS47      -0.1245
      2  CA       -13.6090  -16.6740 -100.5930 C.3    47  LYS47       0.1561
      3  C        -14.0530  -15.2180 -100.4880 C.2    47  LYS47       0.2260
      4  O        -15.2310  -14.9400 -100.3320 O.2    47  LYS47      -0.2867
      5  CB       -12.9910  -17.1570  -99.2620 C.3    47  LYS47       0.0271
      6  CG       -13.9730  -17.5210  -98.1550 C.3    47  LYS47       0.0035
      7  CD       -14.9710  -18.5770  -98.6240 C.3    47  LYS47       0.0206
      8  CE       -14.7750  -19.9290  -97.9560 C.3    47  LYS47       0.1093
      9  NZ       -13.5330  -20.6350  -98.3260 N.3    47  LYS47      -0.1314
     10  N        -21.8610  -12.5700 -102.7900 N.3    54  ARG54      -0.1245
     11  CA       -22.8720  -13.2150 -101.9590 C.3    54  ARG54       0.1563
     12  C        -23.5230  -12.1680 -101.1060 C.2    54  ARG54       0.2260
     13  O        -24.7500  -12.0930 -101.0270 O.2    54  ARG54      -0.2867
     14  CB       -22.2620  -14.2910 -101.0500 C.3    54  ARG54       0.0307
     15  CG       -21.9750  -15.6230 -101.7530 C.3    54  ARG54       0.0489
     16  CD       -21.2060  -16.5940 -100.8770 C.3    54  ARG54       0.2205
     17  NE       -22.0540  -17.2300  -99.8670 N.pl3  54  ARG54      -0.0865
     18  CZ       -21.6240  -17.5890  -98.6610 C.cat  54  ARG54       0.5346
     19  NH1      -20.3540  -17.3850  -98.3210 N.pl3  54  ARG54       0.1354
     20  NH2      -22.4550  -18.1590  -97.7980 N.pl3  54  ARG54       0.1354
     21  N         -9.4550  -30.9220  -98.5160 N.3   119  PHE119     -0.1241
     22  CA        -9.5110  -29.4680  -98.6500 C.3   119  PHE119      0.1605
     23  C        -10.1530  -29.0420  -99.9790 C.2   119  PHE119      0.2264
     24  O        -11.0970  -28.2390  -99.9900 O.2   119  PHE119     -0.2867
     25  CB        -8.1100  -28.8750  -98.5260 C.3   119  PHE119      0.0534
     26  CG        -8.0850  -27.3790  -98.4580 C.ar  119  PHE119     -0.0203
     27  CD1       -8.0360  -26.7280  -97.2250 C.ar  119  PHE119     -0.0042
     28  CD2       -8.0770  -26.6170  -99.6190 C.ar  119  PHE119     -0.0042
     29  CE1       -8.0050  -25.3360  -97.1530 C.ar  119  PHE119     -0.0003
     30  CE2       -8.0390  -25.2320  -99.5530 C.ar  119  PHE119     -0.0003
     31  CZ        -8.0080  -24.5910  -98.3160 C.ar  119  PHE119     -0.0000
     32  N        -13.8180  -30.1860 -100.3930 N.3   122  LYS122     -0.1245
     33  CA       -14.6000  -29.2640  -99.5950 C.3   122  LYS122      0.1561
     34  C        -14.8270  -27.9450 -100.3370 C.2   122  LYS122      0.2260
     35  O        -15.9360  -27.4320 -100.3220 O.2   122  LYS122     -0.2867
     36  CB       -13.9240  -29.0220  -98.2370 C.3   122  LYS122      0.0271
     37  CG       -14.7560  -28.2430  -97.2130 C.3   122  LYS122      0.0035
     38  CD       -13.8640  -27.7460  -96.0900 C.3   122  LYS122      0.0206
     39  CE       -14.2460  -26.3410  -95.6020 C.3   122  LYS122      0.1093
     40  NZ       -14.0630  -25.2910  -96.6710 N.3   122  LYS122     -0.1314
     41  N        -22.3190  -25.0460 -103.5500 N.3   129  ARG129     -0.1231
     42  CA       -23.2720  -24.5650 -102.5500 C.3   129  ARG129      0.1694
     43  C        -23.5910  -23.0830 -102.8060 C.2   129  ARG129      0.2592
     44  O        -24.7500  -22.6510 -102.6850 O.2   129  ARG129     -0.2718
     45  CB       -22.7610  -24.8040 -101.1170 C.3   129  ARG129      0.0321
     46  CG       -23.5410  -24.0860 -100.0110 C.3   129  ARG129      0.0489
     47  CD       -23.3030  -24.6550  -98.5880 C.3   129  ARG129      0.2205
     48  NE       -21.9100  -24.5270  -98.1730 N.pl3 129  ARG129     -0.0865
     49  CZ       -21.3910  -23.4940  -97.5050 C.cat 129  ARG129      0.5346
     50  NH1      -22.1620  -22.4690  -97.1400 N.pl3 129  ARG129      0.1354
     51  NH2      -20.0850  -23.4880  -97.2000 N.pl3 129  ARG129      0.1354
     52  N        -22.5740  -22.3150 -103.1950 N.am  130  TYR130     -0.1976
     53  CA       -22.7840  -20.8980 -103.4800 C.3   130  TYR130      0.1639
     54  C        -23.6450  -20.7310 -104.7310 C.2   130  TYR130      0.2290
     55  O        -24.5330  -19.8660 -104.7750 O.2   130  TYR130     -0.2864
     56  CB       -21.4570  -20.1460 -103.6190 C.3   130  TYR130      0.0560
     57  CG       -20.5670  -20.2460 -102.3960 C.ar  130  TYR130     -0.0198
     58  CD1      -21.1230  -20.3350 -101.1130 C.ar  130  TYR130     -0.0009
     59  CD2      -19.1710  -20.2340 -102.5150 C.ar  130  TYR130     -0.0009
     60  CE1      -20.3310  -20.4210  -99.9960 C.ar  130  TYR130      0.0417
     61  CE2      -18.3610  -20.3220 -101.3800 C.ar  130  TYR130      0.0417
     62  CZ       -18.9580  -20.4170 -100.1280 C.ar  130  TYR130      0.1957
     63  OH       -18.1990  -20.5070  -98.9970 O.3   130  TYR130     -0.2866
     64  N         -8.3570  -29.7960  -88.1410 N.3   167  PRO167     -0.2116
     65  CA        -9.0630  -28.5770  -88.5740 C.3   167  PRO167      0.1372
     66  C         -9.8160  -28.7340  -89.8960 C.2   167  PRO167      0.2244
     67  O        -10.9850  -28.3200  -90.0110 O.2   167  PRO167     -0.2868
     68  CB        -7.9390  -27.5640  -88.7550 C.3   167  PRO167      0.0268
     69  CG        -6.8270  -28.0510  -87.8410 C.3   167  PRO167      0.0207
     70  CD        -6.9630  -29.5320  -87.7200 C.3   167  PRO167      0.0892
     71  N        -13.7140  -28.4480  -90.3030 N.3   171  GLY171     -0.1225
     72  CA       -14.2320  -27.4010  -91.1820 C.3   171  GLY171      0.1811
     73  C        -15.1690  -27.9760  -92.2220 C.2   171  GLY171      0.2280
     74  O        -16.1420  -27.3350  -92.6430 O.2   171  GLY171     -0.2866
     75  N        -18.3820  -28.7570  -90.4800 N.3   174  LEU174     -0.1231
     76  CA       -19.0680  -27.4940  -90.3370 C.3   174  LEU174      0.1693
     77  C        -19.8460  -27.1400  -91.6210 C.2   174  LEU174      0.2592
     78  O        -21.0760  -26.9980  -91.5870 O.2   174  LEU174     -0.2718
     79  CB       -18.0610  -26.4080  -89.9800 C.3   174  LEU174      0.0284
     80  CG       -18.6180  -25.0160  -89.6790 C.3   174  LEU174      0.0019
     81  CD1      -19.6020  -25.0640  -88.5100 C.3   174  LEU174      0.0001
     82  CD2      -17.4800  -24.0870  -89.3630 C.3   174  LEU174      0.0001
     83  N        -19.1320  -27.0210  -92.7450 N.am  175  ASN175     -0.1974
     84  CA       -19.7430  -26.5810  -93.9880 C.3   175  ASN175      0.1688
     85  C        -20.7670  -27.5620  -94.5450 C.2   175  ASN175      0.2292
     86  O        -21.8150  -27.1650  -95.0440 O.2   175  ASN175     -0.2864
     87  CB       -18.6730  -26.2380  -94.9980 C.3   175  ASN175      0.1181
     88  CG       -18.0220  -24.9120  -94.7010 C.2   175  ASN175      0.2629
     89  OD1      -18.3230  -24.3080  -93.6700 O.2   175  ASN175     -0.2716
     90  ND2      -17.1250  -24.4320  -95.6080 N.am  175  ASN175     -0.0877
     91  N        -23.9660  -27.2140  -92.5470 N.3   178  VAL178     -0.1245
     92  CA       -24.6280  -26.0130  -93.0620 C.3   178  VAL178      0.1561
     93  C        -25.3390  -26.3330  -94.3830 C.2   178  VAL178      0.2260
     94  O        -26.5030  -25.9640  -94.5500 O.2   178  VAL178     -0.2867
     95  CB       -23.6350  -24.8210  -93.2050 C.3   178  VAL178      0.0252
     96  CG1      -24.2410  -23.6910  -94.0740 C.3   178  VAL178      0.0019
     97  CG2      -23.2140  -24.2990  -91.8120 C.3   178  VAL178      0.0019
     98  N        -28.5480  -28.1590  -93.6360 N.3   181  TYR181     -0.1227
     99  CA       -29.5660  -27.3360  -93.0010 C.3   181  TYR181      0.1736
    100  C        -30.1570  -26.2920  -93.9610 C.2   181  TYR181      0.2595
    101  O        -31.3750  -26.2350  -94.1380 O.2   181  TYR181     -0.2718
    102  CB       -29.0200  -26.7020  -91.7030 C.3   181  TYR181      0.0548
    103  CG       -30.0580  -25.9520  -90.8960 C.ar  181  TYR181     -0.0200
    104  CD1      -30.8870  -26.6160  -89.9740 C.ar  181  TYR181     -0.0009
    105  CD2      -30.2320  -24.5820  -91.0700 C.ar  181  TYR181     -0.0009
    106  CE1      -31.8730  -25.9200  -89.2500 C.ar  181  TYR181      0.0417
    107  CE2      -31.1930  -23.8840  -90.3630 C.ar  181  TYR181      0.0417
    108  CZ       -32.0080  -24.5480  -89.4560 C.ar  181  TYR181      0.1957
    109  OH       -32.9480  -23.8080  -88.7620 O.3   181  TYR181     -0.2866
    110  N        -29.3010  -25.4900  -94.5820 N.am  182  GLU182     -0.1979
    111  CA       -29.7430  -24.3950  -95.4260 C.3   182  GLU182      0.1602
    112  C        -30.1670  -24.7950  -96.8370 C.2   182  GLU182      0.2287
    113  O        -31.0600  -24.1700  -97.4140 O.2   182  GLU182     -0.2864
    114  CB       -28.6620  -23.3020  -95.4710 C.3   182  GLU182      0.0415
    115  CG       -28.6740  -22.3390  -94.3070 C.3   182  GLU182      0.1163
    116  CD       -27.7750  -22.8130  -93.1820 C.2   182  GLU182      0.3649
    117  OE1      -27.5590  -24.0400  -93.0790 O.co2 182  GLU182     -0.2457
    118  OE2      -27.2420  -21.9620  -92.4360 O.co2 182  GLU182     -0.2457
    119  N        -13.2480  -23.9670  -84.6280 N.3   219  ILE219     -0.1245
    120  CA       -14.2720  -24.6270  -85.4340 C.3   219  ILE219      0.1561
    121  C        -15.2430  -25.3640  -84.5220 C.2   219  ILE219      0.2260
    122  O        -16.4500  -25.3740  -84.7470 O.2   219  ILE219     -0.2867
    123  CB       -13.6820  -25.5850  -86.5030 C.3   219  ILE219      0.0252
    124  CG1      -12.6670  -24.8490  -87.3950 C.3   219  ILE219      0.0019
    125  CG2      -14.7870  -26.1310  -87.3930 C.3   219  ILE219      0.0019
    126  CD1      -11.7580  -25.7360  -88.2330 C.3   219  ILE219      0.0001
    127  N        -17.8270  -23.1070  -83.4130 N.3   222  LEU222     -0.1245
    128  CA       -18.7480  -22.8350  -84.4870 C.3   222  LEU222      0.1561
    129  C        -19.7810  -23.9570  -84.6150 C.2   222  LEU222      0.2260
    130  O        -20.9860  -23.6990  -84.7470 O.2   222  LEU222     -0.2867
    131  CB       -17.9890  -22.5950  -85.7920 C.3   222  LEU222      0.0270
    132  CG       -17.0500  -21.3880  -85.7720 C.3   222  LEU222      0.0019
    133  CD1      -16.5790  -21.1620  -87.1490 C.3   222  LEU222      0.0001
    134  CD2      -17.7180  -20.1010  -85.2340 C.3   222  LEU222      0.0001
    135  N        -22.1330  -23.5270  -81.8480 N.3   225  ASP225     -0.1225
    136  CA       -22.9500  -22.3300  -82.0810 C.3   225  ASP225      0.1805
    137  C        -24.1050  -22.6590  -83.0240 C.2   225  ASP225      0.2597
    138  O        -25.2560  -22.3910  -82.7100 O.2   225  ASP225     -0.2718
    139  CB       -22.1100  -21.1500  -82.6180 C.3   225  ASP225      0.1424
    140  CG       -21.1440  -20.5620  -81.5670 C.2   225  ASP225      0.3668
    141  OD1      -21.2810  -20.8510  -80.3510 O.co2 225  ASP225     -0.2456
    142  OD2      -20.2330  -19.8060  -81.9730 O.co2 225  ASP225     -0.2456
    143  N        -23.7800  -23.2770  -84.1570 N.am  226  ASN226     -0.1974
    144  CA       -24.7820  -23.7250  -85.1100 C.3   226  ASN226      0.1688
    145  C        -25.7580  -24.7280  -84.5070 C.2   226  ASN226      0.2292
    146  O        -26.9500  -24.6540  -84.7700 O.2   226  ASN226     -0.2864
    147  CB       -24.1130  -24.3170  -86.3390 C.3   226  ASN226      0.1181
    148  CG       -23.2790  -23.3020  -87.0940 C.2   226  ASN226      0.2629
    149  OD1      -23.2650  -22.1090  -86.7630 O.2   226  ASN226     -0.2716
    150  ND2      -22.5720  -23.7700  -88.1210 N.am  226  ASN226     -0.0877
    151  N        -28.2110  -22.8340  -82.2290 N.3   229  LEU229     -0.1231
    152  CA       -29.1530  -22.1410  -83.0840 C.3   229  LEU229      0.1693
    153  C        -30.1940  -23.0940  -83.6690 C.2   229  LEU229      0.2592
    154  O        -31.3900  -22.7920  -83.6590 O.2   229  LEU229     -0.2718
    155  CB       -28.4050  -21.4230  -84.2120 C.3   229  LEU229      0.0284
    156  CG       -28.9760  -20.0730  -84.6500 C.3   229  LEU229      0.0019
    157  CD1      -28.9690  -19.0890  -83.4740 C.3   229  LEU229      0.0001
    158  CD2      -28.1720  -19.5270  -85.8110 C.3   229  LEU229      0.0001
    159  N        -29.7330  -24.2440  -84.1650 N.am  230  TRP230     -0.1976
    160  CA       -30.6070  -25.2050  -84.8530 C.3   230  TRP230      0.1640
    161  C        -31.5410  -25.9380  -83.9130 C.2   230  TRP230      0.2290
    162  O        -32.4730  -26.5980  -84.3630 O.2   230  TRP230     -0.2864
    163  CB       -29.7920  -26.2240  -85.6510 C.3   230  TRP230      0.0576
    164  CG       -28.9830  -25.6180  -86.7500 C.ar  230  TRP230      0.0006
    165  CD1      -29.1600  -24.3940  -87.3200 C.ar  230  TRP230      0.0946
    166  CD2      -27.8690  -26.2120  -87.4180 C.ar  230  TRP230      0.0152
    167  NE1      -28.2200  -24.1820  -88.3010 N.ar  230  TRP230     -0.2442
    168  CE2      -27.4170  -25.2880  -88.3810 C.ar  230  TRP230      0.0810
    169  CE3      -27.2070  -27.4350  -87.2970 C.ar  230  TRP230      0.0012
    170  CZ2      -26.3410  -25.5550  -89.2230 C.ar  230  TRP230      0.0191
    171  CZ3      -26.1390  -27.6940  -88.1320 C.ar  230  TRP230      0.0001
    172  CH2      -25.7150  -26.7550  -89.0790 C.ar  230  TRP230      0.0015
@<TRIPOS>BOND
     1    55    54    2
     2    54    53    1
     3    56    53    1
     4    56    57    1
     5    41    42    1
     6    53    52    1
     7    52    43   am
     8    43    44    2
     9    43    42    1
    10    10    11    1
    11    42    45    1
    12    59    57   ar
    13    59    61   ar
    14    57    58   ar
    15    11    12    1
    16    11    14    1
    17    15    14    1
    18    15    16    1
    19     1     2    1
    20    61    62   ar
    21    45    46    1
    22    58    60   ar
    23    12    13    2
    24    16    17    1
    25     2     3    1
    26     2     5    1
    27     3     4    2
    28    32    33    1
    29    34    35    2
    30    34    33    1
    31    62    60   ar
    32    62    63    1
    33    46    47    1
    34    24    23    2
    35    23    22    1
    36    17    18    2
    37    28    30   ar
    38    28    26   ar
    39    33    36    1
    40    30    31   ar
    41     5     6    1
    42    18    19    1
    43    18    20    1
    44    22    25    1
    45    22    21    1
    46     7     6    1
    47     7     8    1
    48    47    48    1
    49    25    26    1
    50    26    27   ar
    51     9     8    1
    52    31    29   ar
    53    36    37    1
    54    48    49    2
    55    49    51    1
    56    49    50    1
    57   113   112    2
    58    27    29   ar
    59    37    38    1
    60   112   111    1
    61    40    39    1
    62    38    39    1
    63    90    88   am
    64   114   111    1
    65   114   115    1
    66   111   110    1
    67    86    85    2
    68    87    88    1
    69    87    84    1
    70    88    89    2
    71   110   100   am
    72    94    93    2
    73    85    84    1
    74    93    92    1
    75   115   116    1
    76   101   100    2
    77    96    95    1
    78    84    83    1
    79   100    99    1
    80    98    99    1
    81    95    92    1
    82    95    97    1
    83   116   117   ar
    84   116   118   ar
    85    92    91    1
    86    99   102    1
    87    83    77   am
    88    74    73    2
    89    73    72    1
    90   102   103    1
    91    77    78    2
    92    77    76    1
    93    72    71    1
    94   105   103   ar
    95   105   107   ar
    96   103   104   ar
    97    75    76    1
    98   107   108   ar
    99    76    79    1
   100    67    66    2
   101    79    80    1
   102   104   106   ar
   103    66    65    1
   104    80    82    1
   105    80    81    1
   106   108   106   ar
   107   108   109    1
   108   170   172   ar
   109   170   168   ar
   110   172   171   ar
   111    68    65    1
   112    68    69    1
   113    65    64    1
   114   168   167   ar
   115   168   166   ar
   116   167   165   ar
   117   126   124    1
   118    64    70    1
   119   171   169   ar
   120   150   148   am
   121    69    70    1
   122   166   169   ar
   123   166   164   ar
   124   124   123    1
   125   125   123    1
   126   165   164   ar
   127   133   132    1
   128   148   149    2
   129   148   147    1
   130   164   163    1
   131   123   120    1
   132   147   144    1
   133   158   156    1
   134   131   132    1
   135   131   128    1
   136   132   134    1
   137   163   160    1
   138   120   119    1
   139   120   121    1
   140   144   145    1
   141   144   143    1
   142   160   159    1
   143   160   161    1
   144   146   145    2
   145   122   121    2
   146   130   129    2
   147   156   155    1
   148   156   157    1
   149   129   128    1
   150   128   127    1
   151   162   161    2
   152   155   152    1
   153   159   153   am
   154   143   137   am
   155   153   154    2
   156   153   152    1
   157   152   151    1
   158   137   138    2
   159   137   136    1
   160   139   136    1
   161   139   140    1
   162   136   135    1
   163   142   140   ar
   164   140   141   ar
