@<TRIPOS>MOLECULE
tmp/2b07A00.pdb
 160 149 0 0 0
SMALL
GASTEIGER

@<TRIPOS>ATOM
      1  N         58.4740    6.1000    7.1030 N.3    23  ARG23      -0.1245
      2  CA        57.4720    5.4370    6.2680 C.3    23  ARG23       0.1563
      3  C         57.7480    3.9310    6.1820 C.2    23  ARG23       0.2260
      4  O         56.8270    3.1210    6.2950 O.2    23  ARG23      -0.2867
      5  CB        57.4380    6.0510    4.8600 C.3    23  ARG23       0.0307
      6  CG        56.6400    7.3410    4.7330 C.3    23  ARG23       0.0489
      7  CD        56.1610    7.5450    3.2960 C.3    23  ARG23       0.2205
      8  NE        55.0260    8.4650    3.2230 N.pl3  23  ARG23      -0.0865
      9  CZ        54.6270    9.1180    2.1240 C.cat  23  ARG23       0.5346
     10  NH1       55.2800    8.9740    0.9640 N.pl3  23  ARG23       0.1354
     11  NH2       53.5790    9.9410    2.1910 N.pl3  23  ARG23       0.1354
     12  N         57.1530    2.0970    9.6550 N.3    26  ALA26      -0.1245
     13  CA        55.8900    2.3990   10.2980 C.3    26  ALA26       0.1562
     14  C         55.0360    1.1540   10.4140 C.2    26  ALA26       0.2260
     15  O         55.1270    0.2520    9.5950 O.2    26  ALA26      -0.2867
     16  CB        55.1590    3.4650    9.5370 C.3    26  ALA26       0.0290
     17  N         52.0200   -1.5660   10.3740 N.3    28  ASP28      -0.1239
     18  CA        50.9760   -1.9240    9.4260 C.3    28  ASP28       0.1674
     19  C         49.9990   -2.8580   10.1000 C.2    28  ASP28       0.2266
     20  O         50.3540   -3.9570   10.4810 O.2    28  ASP28      -0.2867
     21  CB        51.5850   -2.5960    8.1930 C.3    28  ASP28       0.1410
     22  CG        50.5660   -2.8700    7.0960 C.2    28  ASP28       0.3668
     23  OD1       49.5210   -2.1970    7.0530 O.co2  28  ASP28      -0.2456
     24  OD2       50.8210   -3.7600    6.2640 O.co2  28  ASP28      -0.2456
     25  N         38.6680    9.1060    1.7070 N.3    45  TYR45      -0.1241
     26  CA        39.7900    8.6540    0.8730 C.3    45  TYR45       0.1605
     27  C         39.9450    7.1340    0.9510 C.2    45  TYR45       0.2264
     28  O         40.0270    6.5700    2.0430 O.2    45  TYR45      -0.2867
     29  CB        41.1020    9.3250    1.3140 C.3    45  TYR45       0.0534
     30  CG        41.0670   10.8280    1.1810 C.ar   45  TYR45      -0.0201
     31  CD1       41.1410   11.4350   -0.0730 C.ar   45  TYR45      -0.0009
     32  CD2       40.9270   11.6490    2.3080 C.ar   45  TYR45      -0.0009
     33  CE1       41.0840   12.8260   -0.2080 C.ar   45  TYR45       0.0417
     34  CE2       40.8830   13.0490    2.1840 C.ar   45  TYR45       0.0417
     35  CZ        40.9560   13.6250    0.9270 C.ar   45  TYR45       0.1957
     36  OH        40.9010   14.9990    0.7900 O.3    45  TYR45      -0.2866
     37  N         42.4570    5.2950    0.4030 N.3    47  ASP47      -0.1225
     38  CA        43.7210    4.8540    0.9840 C.3    47  ASP47       0.1805
     39  C         43.9800    5.2940    2.4280 C.2    47  ASP47       0.2597
     40  O         45.0450    5.0220    2.9690 O.2    47  ASP47      -0.2718
     41  CB        44.8830    5.3000    0.0940 C.3    47  ASP47       0.1424
     42  CG        44.8610    4.6310   -1.2830 C.2    47  ASP47       0.3668
     43  OD1       44.2140    3.5640   -1.4410 O.co2  47  ASP47      -0.2456
     44  OD2       45.5030    5.1790   -2.2060 O.co2  47  ASP47      -0.2456
     45  N         43.0340    5.9990    3.0430 N.am   48  VAL48      -0.1980
     46  CA        43.2300    6.4770    4.4070 C.3    48  VAL48       0.1595
     47  C         42.1460    5.9020    5.3120 C.2    48  VAL48       0.2287
     48  O         40.9740    6.3380    5.2910 O.2    48  VAL48      -0.2864
     49  CB        43.2790    8.0300    4.4800 C.3    48  VAL48       0.0276
     50  CG1       43.5060    8.5010    5.9210 C.3    48  VAL48       0.0022
     51  CG2       44.3580    8.5770    3.5470 C.3    48  VAL48       0.0022
     52  N         37.0120   19.7450    1.0060 N.3   119  LYS119     -0.1245
     53  CA        37.8250   18.8050    1.7690 C.3   119  LYS119      0.1561
     54  C         37.1010   18.3460    3.0300 C.2   119  LYS119      0.2260
     55  O         37.5810   17.4700    3.7490 O.2   119  LYS119     -0.2867
     56  CB        39.1700   19.4360    2.1360 C.3   119  LYS119      0.0271
     57  CG        39.9710   19.9290    0.9410 C.3   119  LYS119      0.0035
     58  CD        40.5410   18.7680    0.1410 C.3   119  LYS119      0.0206
     59  CE        41.8060   19.1750   -0.5970 C.3   119  LYS119      0.1093
     60  NZ        42.9230   19.4750    0.3400 N.3   119  LYS119     -0.1314
     61  N         47.1120   22.4000    2.6020 N.3   180  ASP180     -0.1225
     62  CA        47.1600   20.9460    2.4760 C.3   180  ASP180      0.1805
     63  C         48.5340   20.5300    1.9570 C.2   180  ASP180      0.2597
     64  O         49.0870   21.1870    1.0710 O.2   180  ASP180     -0.2718
     65  CB        46.0600   20.4380    1.5440 C.3   180  ASP180      0.1424
     66  CG        46.1080   21.1000    0.1760 C.2   180  ASP180      0.3668
     67  OD1       45.6740   22.2690    0.0790 O.co2 180  ASP180     -0.2456
     68  OD2       46.5920   20.4580   -0.7890 O.co2 180  ASP180     -0.2456
     69  N         49.0700   19.4470    2.5210 N.am  181  PHE181     -0.1976
     70  CA        50.4270   18.9700    2.2320 C.3   181  PHE181      0.1639
     71  C         51.4720   20.0680    2.4670 C.2   181  PHE181      0.2290
     72  O         52.5980   19.9800    1.9720 O.2   181  PHE181     -0.2864
     73  CB        50.5370   18.4010    0.8050 C.3   181  PHE181      0.0560
     74  CG        49.6040   17.2540    0.5330 C.ar  181  PHE181     -0.0200
     75  CD1       49.9650   15.9520    0.8670 C.ar  181  PHE181     -0.0042
     76  CD2       48.3650   17.4760   -0.0610 C.ar  181  PHE181     -0.0042
     77  CE1       49.1010   14.8900    0.6170 C.ar  181  PHE181     -0.0003
     78  CE2       47.4970   16.4150   -0.3140 C.ar  181  PHE181     -0.0003
     79  CZ        47.8680   15.1270    0.0250 C.ar  181  PHE181     -0.0000
     80  N         42.0650   17.4200    9.9250 N.3   214  CYS214     -0.1221
     81  CA        41.9830   18.1430    8.6610 C.3   214  CYS214      0.1808
     82  C         41.0260   17.4540    7.6930 C.2   214  CYS214      0.2602
     83  O         39.8530   17.2490    8.0050 O.2   214  CYS214     -0.2717
     84  CB        43.3690   18.2730    8.0270 C.3   214  CYS214      0.0970
     85  SG        44.4160   16.8110    8.2140 S.3   214  CYS214     -0.0800
     86  N         41.5350   17.0990    6.5180 N.am  215  SER215     -0.1938
     87  CA        40.7190   16.4660    5.4890 C.3   215  SER215      0.2055
     88  C         40.7950   14.9460    5.5830 C.2   215  SER215      0.2642
     89  O         39.7710   14.2660    5.6510 O.2   215  SER215     -0.2714
     90  CB        41.1560   16.9300    4.0980 C.3   215  SER215      0.2130
     91  OG        40.1850   16.5960    3.1210 O.3   215  SER215     -0.2179
     92  N         42.0150   14.4180    5.5850 N.am  216  ALA216     -0.1977
     93  CA        42.2280   12.9820    5.7120 C.3   216  ALA216      0.1597
     94  C         42.4560   12.5840    7.1670 C.2   216  ALA216      0.2287
     95  O         42.2800   11.4240    7.5390 O.2   216  ALA216     -0.2864
     96  CB        43.4020   12.5420    4.8500 C.3   216  ALA216      0.0319
     97  N         45.4490   12.9130    8.8340 N.3   218  ILE218     -0.1231
     98  CA        46.7630   12.2810    9.0270 C.3   218  ILE218      0.1692
     99  C         47.9470   13.2100    8.8430 C.2   218  ILE218      0.2593
    100  O         48.9100   13.1110    9.5910 O.2   218  ILE218     -0.2718
    101  CB        46.9480   10.9570    8.2050 C.3   218  ILE218      0.0266
    102  CG1       46.8300   11.1970    6.6890 C.3   218  ILE218      0.0019
    103  CG2       45.9580    9.9020    8.6590 C.3   218  ILE218      0.0020
    104  CD1       47.1410    9.9320    5.8350 C.3   218  ILE218      0.0001
    105  N         47.8820   14.1230    7.8740 N.am  219  GLY219     -0.1942
    106  CA        49.0290   14.9880    7.5940 C.3   219  GLY219      0.2014
    107  C         49.1880   16.1300    8.5820 C.2   219  GLY219      0.2638
    108  O         50.0400   16.0870    9.4930 O.2   219  GLY219     -0.2714
    109  N         48.3720   17.1670    8.3830 N.am  220  ARG220     -0.1977
    110  CA        48.3040   18.3160    9.2930 C.3   220  ARG220      0.1597
    111  C         47.9540   17.9020   10.7320 C.2   220  ARG220      0.2287
    112  O         48.5750   18.3620   11.6870 O.2   220  ARG220     -0.2864
    113  CB        47.3110   19.3660    8.7430 C.3   220  ARG220      0.0334
    114  CG        47.8440   20.0620    7.4820 C.3   220  ARG220      0.0492
    115  CD        46.8240   20.9710    6.8180 C.3   220  ARG220      0.2205
    116  NE        45.7960   20.2230    6.0930 N.pl3 220  ARG220     -0.0865
    117  CZ        44.8560   20.7830    5.3310 C.cat 220  ARG220      0.5346
    118  NH1       44.8070   22.1090    5.1830 N.pl3 220  ARG220      0.1354
    119  NH2       43.9610   20.0110    4.7100 N.pl3 220  ARG220      0.1354
    120  N         52.1300    6.4280   14.9580 N.3   253  ARG253     -0.1245
    121  CA        51.7770    5.6190   13.7760 C.3   253  ARG253      0.1563
    122  C         51.2940    4.1890   14.0400 C.2   253  ARG253      0.2260
    123  O         50.7530    3.5520   13.1390 O.2   253  ARG253     -0.2867
    124  CB        52.8880    5.6500   12.7300 C.3   253  ARG253      0.0307
    125  CG        52.7490    6.8210   11.7640 C.3   253  ARG253      0.0489
    126  CD        53.9110    6.8420   10.7930 C.3   253  ARG253      0.2205
    127  NE        53.9250    8.0160    9.9160 N.pl3 253  ARG253     -0.0865
    128  CZ        53.8580    7.9690    8.5830 C.cat 253  ARG253      0.5346
    129  NH1       53.7500    6.7970    7.9570 N.pl3 253  ARG253      0.1354
    130  NH2       53.9220    9.0930    7.8710 N.pl3 253  ARG253      0.1354
    131  N         47.5500    5.2060   10.5230 N.3   257  MET257     -0.1230
    132  CA        48.4660    5.2760    9.3780 C.3   257  MET257      0.1702
    133  C         48.7690    6.6980    8.9010 C.2   257  MET257      0.2592
    134  O         47.9300    7.6090    9.0190 O.2   257  MET257     -0.2718
    135  CB        47.9100    4.4820    8.1850 C.3   257  MET257      0.0401
    136  CG        46.5500    4.9820    7.6650 C.3   257  MET257      0.0596
    137  SD        46.0810    4.3160    6.0580 S.3   257  MET257     -0.1393
    138  CE        45.7870    2.5880    6.4870 C.3   257  MET257      0.0692
    139  N         49.9840    6.8690    8.3860 N.am  258  GLY258     -0.1957
    140  CA        50.3260    7.9970    7.5370 C.3   258  GLY258      0.1869
    141  C         50.5210    9.3320    8.2200 C.2   258  GLY258      0.2309
    142  O         50.5650   10.3620    7.5490 O.2   258  GLY258     -0.2863
    143  N         52.6360   13.8120    6.5470 N.3   261  GLN261     -0.1245
    144  CA        52.5030   13.4010    5.1580 C.3   261  GLN261      0.1566
    145  C         53.6370   13.7840    4.2230 C.2   261  GLN261      0.2260
    146  O         53.7870   13.1950    3.1550 O.2   261  GLN261     -0.2867
    147  CB        51.1400   13.8100    4.6060 C.3   261  GLN261      0.0367
    148  CG        50.1010   12.7260    4.8500 C.3   261  GLN261      0.0905
    149  CD        50.3940   11.4810    4.0210 C.2   261  GLN261      0.2608
    150  OE1       50.3690   11.5380    2.7900 O.2   261  GLN261     -0.2717
    151  NE2       50.7070   10.3630    4.6910 N.am  261  GLN261     -0.0878
    152  N         56.7110   18.6690    6.6010 N.3   265  GLN265     -0.1245
    153  CA        55.8610   18.6250    7.7970 C.3   265  GLN265      0.1566
    154  C         56.6180   18.0180    8.9860 C.2   265  GLN265      0.2260
    155  O         56.4660   18.4630   10.1210 O.2   265  GLN265     -0.2867
    156  CB        54.5600   17.8600    7.5350 C.3   265  GLN265      0.0367
    157  CG        53.5260   18.6330    6.7390 C.3   265  GLN265      0.0905
    158  CD        52.2560   17.8390    6.4730 C.2   265  GLN265      0.2608
    159  OE1       52.1760   16.6410    6.7670 O.2   265  GLN265     -0.2717
    160  NE2       51.2540   18.5030    5.9130 N.am  265  GLN265     -0.0878
@<TRIPOS>BOND
     1    44    42   ar
     2    43    42   ar
     3    42    41    1
     4    68    66   ar
     5    59    58    1
     6    59    60    1
     7    78    76   ar
     8    78    79   ar
     9    33    31   ar
    10    33    35   ar
    11    31    30   ar
    12    76    74   ar
    13    79    77   ar
    14    67    66   ar
    15    41    38    1
    16    58    57    1
    17    66    65    1
    18    37    38    1
    19    74    73    1
    20    74    75   ar
    21    77    75   ar
    22    36    35    1
    23    73    70    1
    24    26    27    1
    25    26    29    1
    26    26    25    1
    27    35    34   ar
    28    57    56    1
    29    27    28    2
    30    10     9    1
    31    38    39    1
    32    52    53    1
    33    64    63    2
    34    30    29    1
    35    30    32   ar
    36    65    62    1
    37    53    56    1
    38    53    54    1
    39    63    62    1
    40    63    69   am
    41    72    71    2
    42     9    11    1
    43     9     8    2
    44    34    32   ar
    45    70    71    1
    46    70    69    1
    47    39    40    2
    48    39    45   am
    49    62    61    1
    50   150   149    2
    51    54    55    2
    52    45    46    1
    53    91    90    1
    54   146   145    2
    55     8     7    1
    56     7     6    1
    57    51    49    1
    58   149   151   am
    59   149   148    1
    60    90    87    1
    61   145   144    1
    62    46    49    1
    63    46    47    1
    64    49    50    1
    65   147   148    1
    66   147   144    1
    67   119   117    1
    68     6     5    1
    69    96    93    1
    70     5     2    1
    71   144   143    1
    72   118   117    1
    73    48    47    2
    74   117   116    2
    75    87    88    1
    76    87    86    1
    77    88    92   am
    78    88    89    2
    79    92    93    1
    80    93    94    1
    81   104   102    1
    82   160   158   am
    83   137   138    1
    84   137   136    1
    85   116   115    1
    86     3     2    1
    87     3     4    2
    88    24    22   ar
    89     2     1    1
    90   158   157    1
    91   158   159    2
    92    86    82   am
    93   152   153    1
    94   102   101    1
    95   157   156    1
    96   115   114    1
    97    23    22   ar
    98    22    21    1
    99    94    95    2
   100   114   113    1
   101   156   153    1
   102   140   141    1
   103   140   139    1
   104   142   141    2
   105   106   105    1
   106   106   107    1
   107   136   135    1
   108    82    83    2
   109    82    81    1
   110   153   154    1
   111   130   128    1
   112   105    99   am
   113   129   128    1
   114    84    85    1
   115    84    81    1
   116   135   132    1
   117    21    18    1
   118   101   103    1
   119   101    98    1
   120   109   107   am
   121   109   110    1
   122   139   133   am
   123   107   108    2
   124   128   127    2
   125    81    80    1
   126   113   110    1
   127    97    98    1
   128    99    98    1
   129    99   100    2
   130   133   134    2
   131   133   132    1
   132   154   155    2
   133   110   111    1
   134   132   131    1
   135    18    19    1
   136    18    17    1
   137    16    13    1
   138    15    14    2
   139    12    13    1
   140   127   126    1
   141    19    20    2
   142    13    14    1
   143   111   112    2
   144   126   125    1
   145   125   124    1
   146   124   121    1
   147   123   122    2
   148   121   122    1
   149   121   120    1
