@<TRIPOS>MOLECULE
tmp/2b0cA00.pdb
 110 103 0 0 0
SMALL
GASTEIGER

@<TRIPOS>ATOM
      1  N         20.9980   -3.1460   54.7390 N.3     8  ASP8       -0.1225
      2  CA        20.8790   -1.7090   54.3290 C.3     8  ASP8        0.1805
      3  C         20.4480   -0.9780   55.6120 C.2     8  ASP8        0.2598
      4  O         19.8490   -1.5910   56.5230 O.2     8  ASP8       -0.2718
      5  CB        19.8570   -1.4210   53.1320 C.3     8  ASP8        0.1424
      6  CG        19.8320    0.1190   52.6520 C.2     8  ASP8        0.3668
      7  OD1       18.9720    0.3220   51.8000 O.co2   8  ASP8       -0.2456
      8  OD2       20.5790    1.1560   53.0500 O.co2   8  ASP8       -0.2456
      9  N         20.7530    0.3120   55.6910 N.am    9  LEU9       -0.1966
     10  CA        20.2760    1.1450   56.7910 C.3     9  LEU9        0.1728
     11  C         19.0090    1.9100   56.3960 C.2     9  LEU9        0.2617
     12  O         17.9160    1.6150   56.8910 O.2     9  LEU9       -0.2715
     13  CB        21.3890    2.0980   57.2510 C.3     9  LEU9        0.0311
     14  CG        21.1670    3.1290   58.3680 C.3     9  LEU9        0.0022
     15  CD1       20.4120    2.5780   59.5550 C.3     9  LEU9        0.0001
     16  CD2       22.5470    3.7010   58.7870 C.3     9  LEU9        0.0001
     17  N         19.1580    2.8750   55.4940 N.am   10  GLY10      -0.1940
     18  CA        18.0500    3.7430   55.0910 C.3    10  GLY10       0.2014
     19  C         16.8940    2.9670   54.4870 C.2    10  GLY10       0.2638
     20  O         17.0980    2.1330   53.5940 O.2    10  GLY10      -0.2714
     21  N         15.6890    3.2160   55.0010 N.am   11  ASN11      -0.1972
     22  CA        14.4740    2.5560   54.5170 C.3    11  ASN11       0.1688
     23  C         14.5010    1.0240   54.6680 C.2    11  ASN11       0.2292
     24  O         13.7480    0.3140   53.9870 O.2    11  ASN11      -0.2864
     25  CB        14.1830    2.9660   53.0630 C.3    11  ASN11       0.1181
     26  CG        12.7360    2.7800   52.6760 C.2    11  ASN11       0.2629
     27  OD1       12.4260    2.3660   51.5440 O.2    11  ASN11      -0.2716
     28  ND2       11.8310    3.0920   53.5940 N.am   11  ASN11      -0.0877
     29  N         13.4070    6.9120   56.8390 N.3    16  ILE16      -0.1245
     30  CA        14.1240    8.1770   56.7160 C.3    16  ILE16       0.1561
     31  C         13.4410    9.0550   55.6720 C.2    16  ILE16       0.2260
     32  O         13.0370    8.5630   54.6180 O.2    16  ILE16      -0.2867
     33  CB        15.6590    7.9540   56.4520 C.3    16  ILE16       0.0252
     34  CG1       16.4370    9.2870   56.4860 C.3    16  ILE16       0.0019
     35  CG2       15.9100    7.1450   55.1570 C.3    16  ILE16       0.0019
     36  CD1       17.9620    9.1070   56.6610 C.3    16  ILE16       0.0001
     37  N         13.8960   12.8840   53.8890 N.3    18  PHE18      -0.1241
     38  CA        14.5710   14.1680   53.6600 C.3    18  PHE18       0.1605
     39  C         13.6430   15.3450   53.4020 C.2    18  PHE18       0.2264
     40  O         14.0940   16.4800   53.3700 O.2    18  PHE18      -0.2867
     41  CB        15.6380   14.0490   52.5580 C.3    18  PHE18       0.0534
     42  CG        16.9060   13.4010   53.0340 C.ar   18  PHE18      -0.0203
     43  CD1       17.9550   14.1750   53.5310 C.ar   18  PHE18      -0.0042
     44  CD2       17.0390   12.0180   53.0230 C.ar   18  PHE18      -0.0042
     45  CE1       19.1230   13.5710   53.9930 C.ar   18  PHE18      -0.0003
     46  CE2       18.2010   11.4060   53.4800 C.ar   18  PHE18      -0.0003
     47  CZ        19.2440   12.1830   53.9700 C.ar   18  PHE18      -0.0000
     48  N         19.8310   13.6240   43.2070 N.3    42  MET42      -0.1245
     49  CA        20.9890   12.7950   43.5060 C.3    42  MET42       0.1570
     50  C         21.9000   12.7870   42.2710 C.2    42  MET42       0.2261
     51  O         21.5610   12.1940   41.2470 O.2    42  MET42      -0.2867
     52  CB        20.5740   11.3540   43.8280 C.3    42  MET42       0.0387
     53  CG        19.3450   11.2050   44.7100 C.3    42  MET42       0.0595
     54  SD        19.6460   11.6250   46.4340 S.3    42  MET42      -0.1393
     55  CE        18.2880   12.7830   46.6440 C.3    42  MET42       0.0692
     56  N         25.8640    0.8800   54.6010 N.3   109  SER109     -0.1202
     57  CA        25.1210    2.0870   54.2650 C.3   109  SER109      0.2020
     58  C         25.9200    3.0660   53.4150 C.2   109  SER109      0.2618
     59  O         27.0890    3.3220   53.7060 O.2   109  SER109     -0.2717
     60  CB        24.6900    2.7960   55.5570 C.3   109  SER109      0.2103
     61  OG        23.9070    3.9340   55.2660 O.3   109  SER109     -0.2182
     62  N         25.2820    3.6220   52.3820 N.am  110  ASN110     -0.1974
     63  CA        25.8580    4.7690   51.6580 C.3   110  ASN110      0.1688
     64  C         25.4500    5.9850   52.4780 C.2   110  ASN110      0.2292
     65  O         24.2810    6.3980   52.4450 O.2   110  ASN110     -0.2864
     66  CB        25.2910    4.8960   50.2370 C.3   110  ASN110      0.1181
     67  CG        25.8200    3.8250   49.2770 C.2   110  ASN110      0.2629
     68  OD1       26.7240    3.0440   49.6060 O.2   110  ASN110     -0.2716
     69  ND2       25.2570    3.8030   48.0750 N.am  110  ASN110     -0.0877
     70  N         27.7260    1.3110   47.5740 N.3   143  LYS143     -0.1245
     71  CA        26.8170    0.4350   46.8400 C.3   143  LYS143      0.1561
     72  C         26.3440    1.2760   45.6490 C.2   143  LYS143      0.2260
     73  O         26.1560    2.4890   45.7930 O.2   143  LYS143     -0.2867
     74  CB        25.6210    0.0030   47.7110 C.3   143  LYS143      0.0271
     75  CG        25.9680   -0.5970   49.0970 C.3   143  LYS143      0.0035
     76  CD        24.6940   -0.8730   49.9460 C.3   143  LYS143      0.0206
     77  CE        24.1560    0.4280   50.5730 C.3   143  LYS143      0.1093
     78  NZ        23.0080    0.2490   51.5080 N.3   143  LYS143     -0.1314
     79  N         18.3070   -4.8760   51.1050 N.3   167  ASP167     -0.1225
     80  CA        18.4270   -3.4740   50.6570 C.3   167  ASP167      0.1805
     81  C         17.1520   -3.1560   49.8980 C.2   167  ASP167      0.2598
     82  O         16.5850   -4.0300   49.2520 O.2   167  ASP167     -0.2718
     83  CB        19.6460   -3.3240   49.7340 C.3   167  ASP167      0.1424
     84  CG        20.1050   -1.8800   49.5590 C.2   167  ASP167      0.3668
     85  OD1       19.3790   -1.0670   48.9660 O.co2 167  ASP167     -0.2456
     86  OD2       21.2300   -1.5610   49.9900 O.co2 167  ASP167     -0.2456
     87  N         16.6800   -1.9230   49.9770 N.am  168  ASP168     -0.1960
     88  CA        15.4620   -1.5500   49.2570 C.3   168  ASP168      0.1840
     89  C         15.7390   -0.9830   47.8520 C.2   168  ASP168      0.2622
     90  O         14.8120   -0.5580   47.1550 O.2   168  ASP168     -0.2715
     91  CB        14.6880   -0.5140   50.0570 C.3   168  ASP168      0.1450
     92  CG        15.4650    0.7700   50.2210 C.2   168  ASP168      0.3671
     93  OD1       16.6460    0.7020   50.6230 O.co2 168  ASP168     -0.2456
     94  OD2       14.8980    1.8480   49.9440 O.co2 168  ASP168     -0.2456
     95  N         17.0080   -0.9620   47.4520 N.am  169  ASN169     -0.1972
     96  CA        17.4000   -0.4140   46.1520 C.3   169  ASN169      0.1688
     97  C         17.7780   -1.5300   45.1670 C.2   169  ASN169      0.2292
     98  O         18.6710   -2.3360   45.4320 O.2   169  ASN169     -0.2864
     99  CB        18.5300    0.6230   46.3180 C.3   169  ASN169      0.1181
    100  CG        19.0510    1.1600   44.9770 C.2   169  ASN169      0.2629
    101  OD1       19.7440    0.4590   44.2420 O.2   169  ASN169     -0.2716
    102  ND2       18.7460    2.4190   44.6800 N.am  169  ASN169     -0.0877
    103  N         21.4270   -1.8520   44.0330 N.3   172  ASN172     -0.1240
    104  CA        22.2150   -2.4490   45.1060 C.3   172  ASN172      0.1653
    105  C         22.0340   -3.9620   45.1380 C.2   172  ASN172      0.2266
    106  O         23.0120   -4.7090   45.2530 O.2   172  ASN172     -0.2867
    107  CB        21.8690   -1.8180   46.4650 C.3   172  ASN172      0.1155
    108  CG        22.3080   -0.3540   46.5730 C.2   172  ASN172      0.2627
    109  OD1       22.9090    0.2080   45.6480 O.2   172  ASN172     -0.2716
    110  ND2       22.0250    0.2650   47.7270 N.am  172  ASN172     -0.0877
@<TRIPOS>BOND
     1    51    50    2
     2    50    49    1
     3    48    49    1
     4    49    52    1
     5    52    53    1
     6   103   104    1
     7   101   100    2
     8   102   100   am
     9    53    54    1
    10   100    99    1
    11   104   105    1
    12   104   107    1
    13   105   106    2
    14    97    98    2
    15    97    96    1
    16   109   108    2
    17    72    73    2
    18    72    71    1
    19    96    99    1
    20    96    95    1
    21    54    55    1
    22   107   108    1
    23   108   110   am
    24    71    70    1
    25    71    74    1
    26    90    89    2
    27    95    89   am
    28    74    75    1
    29    89    88    1
    30    69    67   am
    31    85    84   ar
    32    75    76    1
    33    82    81    2
    34    88    87    1
    35    88    91    1
    36    67    68    2
    37    67    66    1
    38    84    83    1
    39    84    86   ar
    40    83    80    1
    41    81    87   am
    42    81    80    1
    43    94    92   ar
    44    76    77    1
    45    91    92    1
    46    92    93   ar
    47    66    63    1
    48    77    78    1
    49    80    79    1
    50    27    26    2
    51    63    62    1
    52    63    64    1
    53     7     6   ar
    54    62    58   am
    55    65    64    2
    56    41    42    1
    57    41    38    1
    58     6     8   ar
    59     6     5    1
    60    26    25    1
    61    26    28   am
    62    44    42   ar
    63    44    46   ar
    64    42    43   ar
    65    25    22    1
    66     5     2    1
    67    40    39    2
    68    39    38    1
    69    58    59    2
    70    58    57    1
    71    46    47   ar
    72    43    45   ar
    73    20    19    2
    74    38    37    1
    75    47    45   ar
    76    24    23    2
    77    57    56    1
    78    57    60    1
    79     2     1    1
    80     2     3    1
    81    19    21   am
    82    19    18    1
    83    22    23    1
    84    22    21    1
    85    32    31    2
    86    18    17    1
    87    35    33    1
    88    61    60    1
    89    17    11   am
    90     3     9   am
    91     3     4    2
    92    31    30    1
    93     9    10    1
    94    11    10    1
    95    11    12    2
    96    33    34    1
    97    33    30    1
    98    34    36    1
    99    30    29    1
   100    10    13    1
   101    13    14    1
   102    14    16    1
   103    14    15    1
