@<TRIPOS>MOLECULE
tmp/2b0fA00.pdb
 218 208 0 0 0
SMALL
GASTEIGER

@<TRIPOS>ATOM
      1  N        292.6450   -3.2470   15.2230 N.3    22  LYS22      -0.1245
      2  CA       293.9130   -2.5250   15.3940 C.3    22  LYS22       0.1561
      3  C        293.7080   -1.0120   15.4110 C.2    22  LYS22       0.2260
      4  O        294.6770   -0.2510   15.5170 O.2    22  LYS22      -0.2867
      5  CB       294.9340   -2.9170   14.3170 C.3    22  LYS22       0.0271
      6  CG       296.2770   -2.1890   14.4290 C.3    22  LYS22       0.0035
      7  CD       297.2980   -2.7290   13.4280 C.3    22  LYS22       0.0206
      8  CE       298.5400   -1.8470   13.3530 C.3    22  LYS22       0.1093
      9  NZ       298.2280   -0.5060   12.7970 N.3    22  LYS22      -0.1314
     10  N        291.4360    2.7300   10.3270 N.3    25  PHE25      -0.1241
     11  CA       292.1790    2.5670    9.1000 C.3    25  PHE25       0.1605
     12  C        291.4830    3.2060    7.9330 C.2    25  PHE25       0.2264
     13  O        290.2710    3.4240    7.9330 O.2    25  PHE25      -0.2867
     14  CB       292.4470    1.1060    8.7910 C.3    25  PHE25       0.0534
     15  CG       293.5070    0.5250    9.6670 C.ar   25  PHE25      -0.0203
     16  CD1      293.1830    0.0010   10.9030 C.ar   25  PHE25      -0.0042
     17  CD2      294.8340    0.5220    9.2640 C.ar   25  PHE25      -0.0042
     18  CE1      294.1590   -0.5210   11.7270 C.ar   25  PHE25      -0.0003
     19  CE2      295.8190   -0.0010   10.0820 C.ar   25  PHE25      -0.0003
     20  CZ       295.4800   -0.5230   11.3180 C.ar   25  PHE25      -0.0000
     21  N        296.8790   -6.6020    8.5310 N.3    40  HIS40      -0.1241
     22  CA       297.3890   -6.3700    9.8760 C.3    40  HIS40       0.1621
     23  C        296.4240   -5.4960   10.6740 C.2    40  HIS40       0.2264
     24  O        296.5380   -5.3820   11.8930 O.2    40  HIS40      -0.2867
     25  CB       298.7910   -5.7330    9.8320 C.3    40  HIS40       0.0745
     26  CG       298.8720   -4.3700    9.1970 C.ar   40  HIS40       0.0817
     27  ND1      299.0680   -4.2270    7.8440 N.ar   40  HIS40      -0.2268
     28  CD2      298.8830   -3.1390    9.7810 C.ar   40  HIS40       0.1154
     29  CE1      299.2050   -2.9270    7.6340 C.ar   40  HIS40       0.1986
     30  NE2      299.0970   -2.2280    8.7780 N.ar   40  HIS40      -0.2212
     31  N        301.8010  -13.5870    0.9810 N.3    69  ASN69      -0.1240
     32  CA       300.9330  -12.5070    1.4530 C.3    69  ASN69       0.1653
     33  C        300.9710  -11.2970    0.5150 C.2    69  ASN69       0.2266
     34  O        302.0480  -10.8400    0.1300 O.2    69  ASN69      -0.2867
     35  CB       301.3790  -12.0370    2.8410 C.3    69  ASN69       0.1155
     36  CG       300.4730  -10.9720    3.4410 C.2    69  ASN69       0.2627
     37  OD1      299.2510  -11.0510    3.3390 O.2    69  ASN69      -0.2716
     38  ND2      301.0780   -9.9720    4.0750 N.am   69  ASN69      -0.0877
     39  N        298.6940   -8.9010    1.3940 N.3    71  GLU71      -0.1245
     40  CA       298.3330   -8.0360    2.5200 C.3    71  GLU71       0.1567
     41  C        297.0690   -7.2090    2.3000 C.2    71  GLU71       0.2260
     42  O        296.7510   -6.3530    3.1280 O.2    71  GLU71      -0.2867
     43  CB       299.5260   -7.1300    2.8440 C.3    71  GLU71       0.0388
     44  CG       299.3850   -6.2560    4.0990 C.3    71  GLU71       0.1160
     45  CD       299.0490   -7.0360    5.3670 C.2    71  GLU71       0.3649
     46  OE1      299.7040   -8.0660    5.6260 O.co2  71  GLU71      -0.2457
     47  OE2      298.1580   -6.5910    6.1240 O.co2  71  GLU71      -0.2457
     48  N        294.1450    7.2140    8.4900 N.3   105  SER105     -0.1202
     49  CA       294.2240    6.1690    9.5160 C.3   105  SER105      0.2020
     50  C        294.3780    6.6930   10.9560 C.2   105  SER105      0.2618
     51  O        294.2540    7.8830   11.2470 O.2   105  SER105     -0.2717
     52  CB       295.3920    5.2310    9.2000 C.3   105  SER105      0.2103
     53  OG       295.2430    4.6750    7.9090 O.3   105  SER105     -0.2182
     54  N        294.6570    5.7400   11.8420 N.am  106  ASN106     -0.1974
     55  CA       294.7990    5.9440   13.2910 C.3   106  ASN106      0.1688
     56  C        295.6180    7.1720   13.7260 C.2   106  ASN106      0.2292
     57  O        295.1440    7.9620   14.5440 O.2   106  ASN106     -0.2864
     58  CB       295.4100    4.6830   13.8980 C.3   106  ASN106      0.1181
     59  CG       295.4320    4.6970   15.4170 C.2   106  ASN106      0.2629
     60  OD1      294.4530    4.3330   16.0710 O.2   106  ASN106     -0.2716
     61  ND2      296.5610    5.1110   15.9850 N.am  106  ASN106     -0.0877
     62  N        310.2450   -2.4160   -4.4570 N.3   121  ALA121     -0.1245
     63  CA       311.3020   -3.2350   -3.8850 C.3   121  ALA121      0.1562
     64  C        311.1420   -4.6940   -4.2840 C.2   121  ALA121      0.2260
     65  O        311.9890   -5.5300   -3.9660 O.2   121  ALA121     -0.2867
     66  CB       311.3020   -3.0950   -2.3730 C.3   121  ALA121      0.0290
     67  N        310.0340   -8.1220   -3.8040 N.3   123  LEU123     -0.1231
     68  CA       309.6370   -9.0260   -2.7410 C.3   123  LEU123      0.1693
     69  C        310.5150   -8.8320   -1.4920 C.2   123  LEU123      0.2592
     70  O        311.7430   -8.8450   -1.5760 O.2   123  LEU123     -0.2718
     71  CB       309.7350  -10.4730   -3.2320 C.3   123  LEU123      0.0284
     72  CG       309.1140  -10.7750   -4.6060 C.3   123  LEU123      0.0019
     73  CD1      309.1830  -12.2730   -4.8880 C.3   123  LEU123      0.0001
     74  CD2      307.6660  -10.2960   -4.6880 C.3   123  LEU123      0.0001
     75  N        309.8800   -8.6490   -0.3420 N.am  124  ILE124     -0.1966
     76  CA       310.6120   -8.4810    0.9130 C.3   124  ILE124      0.1727
     77  C        309.7910   -8.9950    2.0730 C.2   124  ILE124      0.2616
     78  O        308.6870   -9.5100    1.8830 O.2   124  ILE124     -0.2715
     79  CB       310.9730   -7.0130    1.2240 C.3   124  ILE124      0.0290
     80  CG1      309.7260   -6.1360    1.2820 C.3   124  ILE124      0.0022
     81  CG2      311.9720   -6.4560    0.2260 C.3   124  ILE124      0.0023
     82  CD1      310.0110   -4.7300    1.7760 C.3   124  ILE124      0.0001
     83  N        310.3310   -8.8640    3.2730 N.am  125  ASN125     -0.1958
     84  CA       309.6030   -9.2710    4.4530 C.3   125  ASN125      0.1819
     85  C        308.9220   -8.0600    5.0450 C.2   125  ASN125      0.2621
     86  O        309.5050   -6.9820    5.1290 O.2   125  ASN125     -0.2715
     87  CB       310.5060   -9.9100    5.4960 C.3   125  ASN125      0.1195
     88  CG       310.8410  -11.3510    5.1770 C.2   125  ASN125      0.2630
     89  OD1      310.1350  -12.2700    5.5950 O.2   125  ASN125     -0.2716
     90  ND2      311.9140  -11.5490    4.4260 N.am  125  ASN125     -0.0877
     91  N        307.6870   -8.2490    5.4310 N.am  126  LEU126     -0.1963
     92  CA       306.8920   -7.1940    6.0150 C.3   126  LEU126      0.1728
     93  C        306.4670   -7.6410    7.4080 C.2   126  LEU126      0.2617
     94  O        305.6060   -8.4990    7.5630 O.2   126  LEU126     -0.2715
     95  CB       305.7110   -6.9180    5.0800 C.3   126  LEU126      0.0311
     96  CG       304.8090   -5.7320    5.4210 C.3   126  LEU126      0.0022
     97  CD1      305.5920   -4.4240    5.4100 C.3   126  LEU126      0.0001
     98  CD2      303.6650   -5.6800    4.4210 C.3   126  LEU126      0.0001
     99  N        307.0910   -7.0680    8.4330 N.am  127  SER127     -0.1936
    100  CA       306.8110   -7.4760    9.7970 C.3   127  SER127      0.2055
    101  C        307.1490   -8.9640    9.9560 C.2   127  SER127      0.2644
    102  O        306.4010   -9.7250   10.5790 O.2   127  SER127     -0.2714
    103  CB       305.3440   -7.2030   10.1560 C.3   127  SER127      0.2130
    104  OG       305.1410   -7.3510   11.5450 O.3   127  SER127     -0.2179
    105  N        308.2940   -9.3570    9.3790 N.am  128  SER128     -0.1935
    106  CA       308.7870  -10.7420    9.4120 C.3   128  SER128      0.2055
    107  C        307.8890  -11.6820    8.6240 C.2   128  SER128      0.2643
    108  O        308.0530  -12.9040    8.6790 O.2   128  SER128     -0.2714
    109  CB       308.9530  -11.2480   10.8420 C.3   128  SER128      0.2130
    110  OG       309.8330  -10.4080   11.5610 O.3   128  SER128     -0.2179
    111  N        306.9440  -11.1000    7.9000 N.am  129  THR129     -0.1950
    112  CA       306.0200  -11.8610    7.0580 C.3   129  THR129      0.1897
    113  C        306.2910  -11.5770    5.5840 C.2   129  THR129      0.2313
    114  O        306.0760  -10.4550    5.1150 O.2   129  THR129     -0.2863
    115  CB       304.5480  -11.4980    7.3670 C.3   129  THR129      0.1794
    116  OG1      304.3230  -11.5210    8.7760 O.3   129  THR129     -0.2208
    117  CG2      303.5660  -12.4520    6.6890 C.3   129  THR129      0.0378
    118  N        308.3460    0.9570   -2.7170 N.3   136  ARG136     -0.1245
    119  CA       309.3100    1.6760   -1.8850 C.3   136  ARG136      0.1563
    120  C        309.4050    3.1380   -2.2780 C.2   136  ARG136      0.2260
    121  O        309.6430    3.4610   -3.4380 O.2   136  ARG136     -0.2867
    122  CB       310.7130    1.0580   -2.0040 C.3   136  ARG136      0.0307
    123  CG       311.6850    1.5100   -0.9180 C.3   136  ARG136      0.0489
    124  CD       313.1380    1.4160   -1.3800 C.3   136  ARG136      0.2205
    125  NE       313.5570    2.6040   -2.1180 N.pl3 136  ARG136     -0.0865
    126  CZ       314.1770    2.5820   -3.2900 C.cat 136  ARG136      0.5346
    127  NH1      314.4660    1.4400   -3.8840 N.pl3 136  ARG136      0.1354
    128  NH2      314.5030    3.7150   -3.8770 N.pl3 136  ARG136      0.1354
    129  N        308.6480    7.7520    6.8380 N.3   141  THR141     -0.1203
    130  CA       307.3020    7.5320    7.3310 C.3   141  THR141      0.1994
    131  C        307.3370    6.6140    8.5470 C.2   141  THR141      0.2618
    132  O        308.3170    5.9000    8.7620 O.2   141  THR141     -0.2717
    133  CB       306.3940    6.9300    6.2480 C.3   141  THR141      0.1784
    134  OG1      307.1830    6.2160    5.2960 O.3   141  THR141     -0.2211
    135  CG2      305.6170    8.0190    5.5300 C.3   141  THR141      0.0376
    136  N        306.2740    6.6470    9.3400 N.am  142  LYS142     -0.1965
    137  CA       306.2050    5.8240   10.5460 C.3   142  LYS142      0.1728
    138  C        304.8500    5.1750   10.7150 C.2   142  LYS142      0.2617
    139  O        303.9170    5.3830    9.9360 O.2   142  LYS142     -0.2715
    140  CB       306.4030    6.6740   11.8110 C.3   142  LYS142      0.0311
    141  CG       307.7760    7.2790   12.0340 C.3   142  LYS142      0.0038
    142  CD       307.7950    8.0350   13.3600 C.3   142  LYS142      0.0206
    143  CE       307.4140    7.1250   14.5200 C.3   142  LYS142      0.1093
    144  NZ       307.4030    7.8510   15.8310 N.3   142  LYS142     -0.1314
    145  N        304.7900    4.3870   11.7620 N.am  143  THR143     -0.1937
    146  CA       303.5670    3.7560   12.1920 C.3   143  THR143      0.2028
    147  C        302.4370    4.7830   12.1630 C.2   143  THR143      0.2642
    148  O        302.6950    5.9820   12.2480 O.2   143  THR143     -0.2714
    149  CB       303.7470    3.2670   13.6330 C.3   143  THR143      0.1808
    150  OG1      304.5460    4.2110   14.3580 O.3   143  THR143     -0.2208
    151  CG2      304.4380    1.9290   13.6610 C.3   143  THR143      0.0379
    152  N        301.1970    4.3250   12.0380 N.am  144  GLY144     -0.1954
    153  CA       300.0660    5.2500   12.0290 C.3   144  GLY144      0.1869
    154  C        299.7050    5.7200   10.6300 C.2   144  GLY144      0.2309
    155  O        298.5620    6.1050   10.3750 O.2   144  GLY144     -0.2863
    156  N        300.0550    3.6880    8.0790 N.3   146  CYS146     -0.1235
    157  CA       299.7050    2.5110    7.2910 C.3   146  CYS146      0.1677
    158  C        298.1960    2.4240    7.0840 C.2   146  CYS146      0.2270
    159  O        297.4090    2.6130    8.0100 O.2   146  CYS146     -0.2867
    160  CB       300.3300    1.2050    7.8290 C.3   146  CYS146      0.0956
    161  SG       299.8910    0.7620    9.5250 S.3   146  CYS146     -0.0801
    162  N        299.6170    2.4460    1.7290 N.3   160  HIS160     -0.1226
    163  CA       300.7460    2.4060    2.6200 C.3   160  HIS160      0.1752
    164  C        300.5600    1.2210    3.5410 C.2   160  HIS160      0.2596
    165  O        299.5350    1.1050    4.2080 O.2   160  HIS160     -0.2718
    166  CB       300.7850    3.7110    3.4060 C.3   160  HIS160      0.0759
    167  CG       301.9930    3.9020    4.2650 C.ar  160  HIS160      0.0818
    168  ND1      302.8370    4.9620    4.0660 N.ar  160  HIS160     -0.2268
    169  CD2      302.4160    3.1870    5.3340 C.ar  160  HIS160      0.1154
    170  CE1      303.7540    4.8760    5.0090 C.ar  160  HIS160      0.1986
    171  NE2      303.5400    3.8160    5.8010 N.ar  160  HIS160     -0.2212
    172  N        301.5240    0.3260    3.5740 N.am  161  VAL161     -0.1966
    173  CA       301.3900   -0.8510    4.4020 C.3   161  VAL161      0.1727
    174  C        302.3710   -0.8270    5.5590 C.2   161  VAL161      0.2617
    175  O        302.0950   -1.3710    6.6310 O.2   161  VAL161     -0.2715
    176  CB       301.5420   -2.1320    3.5630 C.3   161  VAL161      0.0290
    177  CG1      302.9600   -2.3010    3.0370 C.3   161  VAL161      0.0023
    178  CG2      301.0920   -3.3420    4.3630 C.3   161  VAL161      0.0023
    179  N        303.4950   -0.1810    5.3450 N.am  162  GLY162     -0.1940
    180  CA       304.4840   -0.0670    6.3860 C.3   162  GLY162      0.2014
    181  C        305.6610    0.7650    5.9630 C.2   162  GLY162      0.2639
    182  O        305.5260    1.6960    5.1650 O.2   162  GLY162     -0.2714
    183  N        306.8120    0.4120    6.4820 N.am  163  GLY163     -0.1939
    184  CA       308.0080    1.1340    6.1510 C.3   163  GLY163      0.2014
    185  C        309.2290    0.4910    6.7440 C.2   163  GLY163      0.2639
    186  O        309.1400   -0.3070    7.6780 O.2   163  GLY163     -0.2714
    187  N        310.3720    0.8170    6.1910 N.am  164  ASN164     -0.1958
    188  CA       311.6170    0.2800    6.6830 C.3   164  ASN164      0.1819
    189  C        312.6480    1.3960    6.7280 C.2   164  ASN164      0.2621
    190  O        313.1530    1.8340    5.6920 O.2   164  ASN164     -0.2715
    191  CB       312.0760   -0.8770    5.7970 C.3   164  ASN164      0.1195
    192  CG       313.4910   -1.3140    6.1060 C.2   164  ASN164      0.2630
    193  OD1      314.4530   -0.7870    5.5420 O.2   164  ASN164     -0.2716
    194  ND2      313.6330   -2.2770    7.0170 N.am  164  ASN164     -0.0877
    195  N        312.9330    1.8730    7.9340 N.am  165  GLY165     -0.1954
    196  CA       313.8840    2.9580    8.0930 C.3   165  GLY165      0.1869
    197  C        313.3230    4.2880    7.6230 C.2   165  GLY165      0.2309
    198  O        312.3620    4.8020    8.1960 O.2   165  GLY165     -0.2863
    199  N        312.6040    4.6390    4.3410 N.3   167  GLN167     -0.1245
    200  CA       311.8800    4.2880    3.1350 C.3   167  GLN167      0.1566
    201  C        310.5150    3.7490    3.5120 C.2   167  GLN167      0.2260
    202  O        310.4100    2.8270    4.3190 O.2   167  GLN167     -0.2867
    203  CB       312.6290    3.2420    2.2980 C.3   167  GLN167      0.0367
    204  CG       313.8810    3.7690    1.6210 C.3   167  GLN167      0.0905
    205  CD       315.0220    4.0220    2.5860 C.2   167  GLN167      0.2608
    206  OE1      315.1780    5.1320    3.0960 O.2   167  GLN167     -0.2717
    207  NE2      315.8240    2.9900    2.8460 N.am  167  GLN167     -0.0878
    208  N        306.9370    1.8270    2.8000 N.3   169  PHE169     -0.1241
    209  CA       306.5720    0.7070    1.9630 C.3   169  PHE169      0.1605
    210  C        305.0700    0.5700    1.8270 C.2   169  PHE169      0.2264
    211  O        304.3440    0.5790    2.8160 O.2   169  PHE169     -0.2867
    212  CB       307.1900   -0.5710    2.5120 C.3   169  PHE169      0.0534
    213  CG       308.6500   -0.6920    2.1750 C.ar  169  PHE169     -0.0203
    214  CD1      309.6130   -0.0360    2.9340 C.ar  169  PHE169     -0.0042
    215  CD2      309.0610   -1.4470    1.0880 C.ar  169  PHE169     -0.0042
    216  CE1      310.9550   -0.1320    2.6070 C.ar  169  PHE169     -0.0003
    217  CE2      310.4010   -1.5500    0.7570 C.ar  169  PHE169     -0.0003
    218  CZ       311.3510   -0.8920    1.5170 C.ar  169  PHE169     -0.0000
@<TRIPOS>BOND
     1    73    72    1
     2    74    72    1
     3    72    71    1
     4    62    63    1
     5    64    65    2
     6    64    63    1
     7    63    66    1
     8   127   126    1
     9   128   126    1
    10    67    68    1
    11   121   120    2
    12   126   125    2
    13    71    68    1
    14    68    69    1
    15   118   119    1
    16   120   119    1
    17   125   124    1
    18   122   119    1
    19   122   123    1
    20    70    69    2
    21    69    75   am
    22   124   123    1
    23    75    76    1
    24    34    33    2
    25    81    79    1
    26    33    32    1
    27   217   215   ar
    28   217   218   ar
    29    76    79    1
    30    76    77    1
    31    31    32    1
    32   215   213   ar
    33    79    80    1
    34    80    82    1
    35    39    40    1
    36    32    35    1
    37   218   216   ar
    38   204   203    1
    39   204   205    1
    40   162   163    1
    41   210   209    1
    42   210   211    2
    43    78    77    2
    44   209   212    1
    45   209   208    1
    46    77    83   am
    47   213   212    1
    48   213   214   ar
    49   203   200    1
    50    41    40    1
    51    41    42    2
    52    40    43    1
    53   205   207   am
    54   205   206    2
    55   216   214   ar
    56   163   166    1
    57   163   164    1
    58    35    36    1
    59    43    44    1
    60   177   176    1
    61   200   201    1
    62   200   199    1
    63    83    84    1
    64    37    36    2
    65   166   167    1
    66    36    38   am
    67   201   202    2
    68   164   172   am
    69   164   165    2
    70   176   178    1
    71   176   173    1
    72   172   173    1
    73   168   167   ar
    74   168   170   ar
    75    44    45    1
    76   167   169   ar
    77   173   174    1
    78    98    96    1
    79    90    88   am
    80    84    85    1
    81    84    87    1
    82   170   171   ar
    83    85    86    2
    84    85    91   am
    85    95    96    1
    86    95    92    1
    87   114   113    2
    88   182   181    2
    89    88    87    1
    90    88    89    2
    91   134   133    1
    92   169   171   ar
    93   179   174   am
    94   179   180    1
    95    45    46   ar
    96    45    47   ar
    97    97    96    1
    98    91    92    1
    99   135   133    1
   100   193   192    2
   101   174   175    2
   102   113   112    1
   103   190   189    2
   104   191   192    1
   105   191   188    1
   106   181   180    1
   107   181   183   am
   108    92    93    1
   109   192   194   am
   110   184   183    1
   111   184   185    1
   112   187   188    1
   113   187   185   am
   114   133   130    1
   115   188   189    1
   116   117   115    1
   117   189   195   am
   118   185   186    2
   119   129   130    1
   120   112   115    1
   121   112   111    1
   122   158   157    1
   123   158   159    2
   124   157   160    1
   125   157   156    1
   126   130   131    1
   127   115   116    1
   128    93    94    2
   129    93    99   am
   130   197   196    1
   131   197   198    2
   132    29    27   ar
   133    29    30   ar
   134   160   161    1
   135    27    26   ar
   136   111   107   am
   137    53    52    1
   138    13    12    2
   139    12    11    1
   140   195   196    1
   141    99   100    1
   142    48    49    1
   143    21    22    1
   144   131   132    2
   145   131   136   am
   146   107   108    2
   147   107   106    1
   148    30    28   ar
   149    14    11    1
   150    14    15    1
   151    11    10    1
   152    26    28   ar
   153    26    25    1
   154    52    49    1
   155    17    15   ar
   156    17    19   ar
   157   136   137    1
   158   105   106    1
   159   105   101   am
   160   106   109    1
   161    49    50    1
   162    15    16   ar
   163   100   101    1
   164   100   103    1
   165    25    22    1
   166    22    23    1
   167   139   138    2
   168   101   102    2
   169    19    20   ar
   170   103   104    1
   171   155   154    2
   172   137   138    1
   173   137   140    1
   174   154   153    1
   175    23    24    2
   176   138   145   am
   177   109   110    1
   178    16    18   ar
   179    50    51    2
   180    50    54   am
   181    20    18   ar
   182   145   146    1
   183   140   141    1
   184    54    55    1
   185   153   152    1
   186   141   142    1
   187   152   147   am
   188   147   146    1
   189   147   148    2
   190   146   149    1
   191     9     8    1
   192    55    56    1
   193    55    58    1
   194     8     7    1
   195   142   143    1
   196     7     6    1
   197   149   151    1
   198   149   150    1
   199    56    57    2
   200    58    59    1
   201     5     6    1
   202     5     2    1
   203   143   144    1
   204     1     2    1
   205     2     3    1
   206     3     4    2
   207    59    61   am
   208    59    60    2
