@<TRIPOS>MOLECULE
tmp/2b0mA00.pdb
 211 203 0 0 0
SMALL
GASTEIGER

@<TRIPOS>ATOM
      1  N        -23.6020   -7.1760    7.3880 N.3     6  TYR6       -0.1241
      2  CA       -24.7250   -8.0090    6.9790 C.3     6  TYR6        0.1605
      3  C        -24.6760   -9.4120    7.5680 C.2     6  TYR6        0.2264
      4  O        -25.6640   -9.9030    8.1130 O.2     6  TYR6       -0.2867
      5  CB       -24.7830   -8.1060    5.4520 C.3     6  TYR6        0.0534
      6  CG       -25.5310   -6.9710    4.7900 C.ar    6  TYR6       -0.0201
      7  CD1      -24.9990   -5.6810    4.7440 C.ar    6  TYR6       -0.0009
      8  CD2      -26.7840   -7.1880    4.2200 C.ar    6  TYR6       -0.0009
      9  CE1      -25.7050   -4.6330    4.1440 C.ar    6  TYR6        0.0417
     10  CE2      -27.4920   -6.1540    3.6230 C.ar    6  TYR6        0.0417
     11  CZ       -26.9510   -4.8810    3.5870 C.ar    6  TYR6        0.1957
     12  OH       -27.6720   -3.8660    2.9980 O.3     6  TYR6       -0.2866
     13  N        -27.1450   -7.4110   10.4330 N.3    10  LEU10      -0.1231
     14  CA       -28.3840   -7.2640    9.6800 C.3    10  LEU10       0.1693
     15  C        -29.1280   -8.5800    9.4480 C.2    10  LEU10       0.2591
     16  O        -30.2300   -8.7680    9.9650 O.2    10  LEU10      -0.2718
     17  CB       -28.0960   -6.5600    8.3470 C.3    10  LEU10       0.0284
     18  CG       -29.2700   -5.8860    7.6240 C.3    10  LEU10       0.0019
     19  CD1      -28.7400   -4.8180    6.6760 C.3    10  LEU10       0.0001
     20  CD2      -30.0900   -6.9200    6.8750 C.3    10  LEU10       0.0001
     21  N        -28.5290   -9.4900    8.6860 N.am   11  MET11      -0.1979
     22  CA       -29.1560  -10.7770    8.3920 C.3    11  MET11       0.1605
     23  C        -29.5590  -11.5570    9.6460 C.2    11  MET11       0.2287
     24  O        -30.7040  -11.9940    9.7720 O.2    11  MET11      -0.2864
     25  CB       -28.2250  -11.6280    7.5260 C.3    11  MET11       0.0413
     26  CG       -27.8920  -10.9870    6.1930 C.3    11  MET11       0.0598
     27  SD       -29.3860  -10.4880    5.3050 S.3    11  MET11      -0.1393
     28  CE       -29.9470  -12.0700    4.6380 C.3    11  MET11       0.0692
     29  N        -32.5240  -10.0540   11.2890 N.3    14  LEU14      -0.1231
     30  CA       -33.6750  -10.2370   10.4190 C.3    14  LEU14       0.1693
     31  C        -34.2410  -11.6440   10.5740 C.2    14  LEU14       0.2591
     32  O        -35.4540  -11.8270   10.6590 O.2    14  LEU14      -0.2718
     33  CB       -33.2660  -10.0090    8.9660 C.3    14  LEU14       0.0284
     34  CG       -34.4020   -9.9960    7.9460 C.3    14  LEU14       0.0019
     35  CD1      -35.3110   -8.8060    8.2080 C.3    14  LEU14       0.0001
     36  CD2      -33.8180   -9.9160    6.5500 C.3    14  LEU14       0.0001
     37  N        -33.3570  -12.6370   10.6130 N.am   15  GLN15      -0.1979
     38  CA       -33.7760  -14.0280   10.7520 C.3    15  GLN15       0.1601
     39  C        -34.4120  -14.2810   12.1140 C.2    15  GLN15       0.2287
     40  O        -35.1240  -15.2660   12.3020 O.2    15  GLN15      -0.2864
     41  CB       -32.5800  -14.9660   10.5640 C.3    15  GLN15       0.0394
     42  CG       -31.8160  -14.7290    9.2730 C.3    15  GLN15       0.0908
     43  CD       -30.8590  -15.8550    8.9350 C.2    15  GLN15       0.2608
     44  OE1      -29.9980  -16.2190    9.7350 O.2    15  GLN15      -0.2717
     45  NE2      -31.0020  -16.4100    7.7360 N.am   15  GLN15      -0.0878
     46  N        -38.7660  -17.4880    7.3620 N.3    20  PRO20      -0.2116
     47  CA       -38.1480  -17.6310    6.0380 C.3    20  PRO20       0.1372
     48  C        -38.9190  -17.0150    4.8710 C.2    20  PRO20       0.2244
     49  O        -38.3920  -16.1650    4.1560 O.2    20  PRO20      -0.2868
     50  CB       -37.9990  -19.1420    5.8940 C.3    20  PRO20       0.0268
     51  CG       -37.7390  -19.5740    7.2970 C.3    20  PRO20       0.0207
     52  CD       -38.7570  -18.7770    8.0780 C.3    20  PRO20       0.0892
     53  N        -39.3520  -13.2270    5.0700 N.3    23  ALA23      -0.1231
     54  CA       -38.0620  -12.6140    4.7940 C.3    23  ALA23       0.1694
     55  C        -37.8420  -12.5860    3.2830 C.2    23  ALA23       0.2592
     56  O        -37.3970  -11.5820    2.7310 O.2    23  ALA23      -0.2718
     57  CB       -36.9480  -13.4010    5.4770 C.3    23  ALA23       0.0304
     58  N        -38.1610  -13.6950    2.6210 N.am   24  HIS24      -0.1976
     59  CA       -38.0130  -13.7900    1.1730 C.3    24  HIS24       0.1656
     60  C        -38.8230  -12.6970    0.4770 C.2    24  HIS24       0.2291
     61  O        -38.2930  -11.9400   -0.3390 O.2    24  HIS24      -0.2864
     62  CB       -38.4780  -15.1630    0.6830 C.3    24  HIS24       0.0771
     63  CG       -38.5000  -15.2970   -0.8080 C.ar   24  HIS24       0.0820
     64  ND1      -39.6580  -15.5440   -1.5140 N.ar   24  HIS24      -0.2267
     65  CD2      -37.5100  -15.2130   -1.7280 C.ar   24  HIS24       0.1154
     66  CE1      -39.3790  -15.6090   -2.8030 C.ar   24  HIS24       0.1986
     67  NE2      -38.0830  -15.4130   -2.9600 N.ar   24  HIS24      -0.2212
     68  N        -39.9820   -9.9060    1.6060 N.3    26  LEU26      -0.1231
     69  CA       -39.4080   -8.5940    1.8900 C.3    26  LEU26       0.1693
     70  C        -38.1810   -8.3730    1.0080 C.2    26  LEU26       0.2591
     71  O        -37.9870   -7.2910    0.4540 O.2    26  LEU26      -0.2718
     72  CB       -39.0090   -8.4990    3.3650 C.3    26  LEU26       0.0284
     73  CG       -38.5100   -7.1320    3.8410 C.3    26  LEU26       0.0019
     74  CD1      -39.6230   -6.1070    3.6710 C.3    26  LEU26       0.0001
     75  CD2      -38.0730   -7.2160    5.3020 C.3    26  LEU26       0.0001
     76  N        -37.3580   -9.4120    0.8900 N.am   27  ALA27      -0.1980
     77  CA       -36.1470   -9.3700    0.0780 C.3    27  ALA27       0.1597
     78  C        -36.4820   -9.0310   -1.3680 C.2    27  ALA27       0.2287
     79  O        -35.8290   -8.1870   -1.9830 O.2    27  ALA27      -0.2864
     80  CB       -35.4340  -10.7200    0.1340 C.3    27  ALA27       0.0319
     81  N        -37.5650   -5.2100   -1.5330 N.3    30  PHE30      -0.1227
     82  CA       -36.4200   -4.3110   -1.4440 C.3    30  PHE30       0.1736
     83  C        -35.5460   -4.3760   -2.6870 C.2    30  PHE30       0.2596
     84  O        -35.0460   -3.3520   -3.1600 O.2    30  PHE30      -0.2718
     85  CB       -35.5640   -4.6420   -0.2170 C.3    30  PHE30       0.0547
     86  CG       -35.9580   -3.8920    1.0200 C.ar   30  PHE30      -0.0202
     87  CD1      -37.1980   -4.0990    1.6140 C.ar   30  PHE30      -0.0042
     88  CD2      -35.0850   -2.9700    1.5910 C.ar   30  PHE30      -0.0042
     89  CE1      -37.5650   -3.3970    2.7610 C.ar   30  PHE30      -0.0003
     90  CE2      -35.4420   -2.2620    2.7390 C.ar   30  PHE30      -0.0003
     91  CZ       -36.6860   -2.4770    3.3240 C.ar   30  PHE30      -0.0000
     92  N        -35.3560   -5.5860   -3.2040 N.am   31  THR31      -0.1953
     93  CA       -34.5330   -5.7760   -4.3900 C.3    31  THR31       0.1897
     94  C        -35.1780   -5.1320   -5.6160 C.2    31  THR31       0.2313
     95  O        -34.5240   -4.3900   -6.3440 O.2    31  THR31      -0.2863
     96  CB       -34.2860   -7.2850   -4.6700 C.3    31  THR31       0.1794
     97  OG1      -33.6480   -7.8850   -3.5350 O.3    31  THR31      -0.2208
     98  CG2      -33.3910   -7.4670   -5.8920 C.3    31  THR31       0.0378
     99  N        -33.3050   -1.0340   -3.5480 N.3    35  LEU35      -0.1231
    100  CA       -32.8490   -0.6260   -2.2220 C.3    35  LEU35       0.1693
    101  C        -31.7380   -1.5690   -1.7580 C.2    35  LEU35       0.2592
    102  O        -31.9310   -2.3800   -0.8520 O.2    35  LEU35      -0.2718
    103  CB       -34.0170   -0.6650   -1.2300 C.3    35  LEU35       0.0284
    104  CG       -35.2350    0.1950   -1.5840 C.3    35  LEU35       0.0019
    105  CD1      -36.3600   -0.0640   -0.5940 C.3    35  LEU35       0.0001
    106  CD2      -34.8460    1.6680   -1.5800 C.3    35  LEU35       0.0001
    107  N        -30.5740   -1.4500   -2.3880 N.am   36  LEU36      -0.1966
    108  CA       -29.4290   -2.2990   -2.0740 C.3    36  LEU36       0.1713
    109  C        -28.2610   -1.4820   -1.5160 C.2    36  LEU36       0.2458
    110  O        -28.1460   -0.2880   -1.7850 O.2    36  LEU36      -0.2730
    111  CB       -28.9760   -3.0320   -3.3400 C.3    36  LEU36       0.0310
    112  CG       -30.0710   -3.6740   -4.2000 C.3    36  LEU36       0.0022
    113  CD1      -29.4620   -4.1890   -5.4930 C.3    36  LEU36       0.0001
    114  CD2      -30.7440   -4.8000   -3.4360 C.3    36  LEU36       0.0001
    115  N        -27.3790   -2.1230   -0.7290 N.am   37  PRO37      -0.2727
    116  CA       -26.2240   -1.4390   -0.1420 C.3    37  PRO37       0.1402
    117  C        -25.1450   -1.1420   -1.1800 C.2    37  PRO37       0.2269
    118  O        -25.3510   -1.3560   -2.3750 O.2    37  PRO37      -0.2865
    119  CB       -25.7500   -2.4220    0.9210 C.3    37  PRO37       0.0296
    120  CG       -26.0550   -3.7440    0.2910 C.3    37  PRO37       0.0237
    121  CD       -27.4500   -3.5200   -0.2620 C.3    37  PRO37       0.0939
    122  N        -35.4170  -17.4320   -6.2630 N.3    63  PHE63      -0.1241
    123  CA       -35.4660  -16.1760   -5.5280 C.3    63  PHE63       0.1605
    124  C        -36.4900  -15.2470   -6.1680 C.2    63  PHE63       0.2264
    125  O        -37.3010  -14.6320   -5.4770 O.2    63  PHE63      -0.2867
    126  CB       -34.1040  -15.4860   -5.5090 C.3    63  PHE63       0.0534
    127  CG       -34.1300  -14.1440   -4.8340 C.ar   63  PHE63      -0.0203
    128  CD1      -34.2640  -14.0510   -3.4500 C.ar   63  PHE63      -0.0042
    129  CD2      -34.0830  -12.9740   -5.5850 C.ar   63  PHE63      -0.0042
    130  CE1      -34.3550  -12.8080   -2.8250 C.ar   63  PHE63      -0.0003
    131  CE2      -34.1740  -11.7280   -4.9700 C.ar   63  PHE63      -0.0003
    132  CZ       -34.3100  -11.6470   -3.5860 C.ar   63  PHE63      -0.0000
    133  N        -27.4920   -5.7550   -8.0340 N.3    76  MET76      -0.1245
    134  CA       -26.8240   -6.4270   -6.9180 C.3    76  MET76       0.1570
    135  C        -25.4470   -6.9600   -7.3280 C.2    76  MET76       0.2261
    136  O        -24.6290   -7.3040   -6.4770 O.2    76  MET76      -0.2867
    137  CB       -27.7070   -7.5710   -6.3870 C.3    76  MET76       0.0387
    138  CG       -27.4020   -7.9890   -4.9510 C.3    76  MET76       0.0595
    139  SD       -28.5730   -9.2140   -4.3070 S.3    76  MET76      -0.1393
    140  CE       -30.0110   -8.2090   -4.0290 C.3    76  MET76       0.0692
    141  N        -40.8710  -23.6000    3.9390 N.3    99  VAL99      -0.1245
    142  CA       -39.4650  -23.2240    3.8110 C.3    99  VAL99       0.1561
    143  C        -38.8950  -23.2410    5.2240 C.2    99  VAL99       0.2260
    144  O        -39.5290  -22.7390    6.1560 O.2    99  VAL99      -0.2867
    145  CB       -39.2880  -21.7940    3.2590 C.3    99  VAL99       0.0252
    146  CG1      -37.8780  -21.6360    2.6950 C.3    99  VAL99       0.0019
    147  CG2      -40.3330  -21.5020    2.2200 C.3    99  VAL99       0.0019
    148  N        -35.1460  -22.9290    7.7360 N.3   101  ARG101     -0.1245
    149  CA       -33.7440  -22.5690    7.8760 C.3   101  ARG101      0.1563
    150  C        -32.9990  -23.5940    8.7240 C.2   101  ARG101      0.2260
    151  O        -33.5310  -24.0940    9.7160 O.2   101  ARG101     -0.2867
    152  CB       -33.6100  -21.2150    8.5710 C.3   101  ARG101      0.0307
    153  CG       -34.3280  -20.0640    7.9140 C.3   101  ARG101      0.0489
    154  CD       -34.5720  -18.9930    8.9650 C.3   101  ARG101      0.2205
    155  NE       -34.9300  -17.6990    8.4000 N.pl3 101  ARG101     -0.0865
    156  CZ       -35.5050  -16.7230    9.0930 C.cat 101  ARG101      0.5346
    157  NH1      -35.7960  -15.5710    8.5060 N.pl3 101  ARG101      0.1354
    158  NH2      -35.8000  -16.9090   10.3730 N.pl3 101  ARG101      0.1354
    159  N        -30.7810  -24.7410    3.7610 N.3   108  VAL108     -0.1245
    160  CA       -32.2050  -24.4870    3.7540 C.3   108  VAL108      0.1561
    161  C        -32.9350  -25.6980    3.1840 C.2   108  VAL108      0.2260
    162  O        -32.3730  -26.4630    2.3990 O.2   108  VAL108     -0.2867
    163  CB       -32.5530  -23.2330    2.8860 C.3   108  VAL108      0.0252
    164  CG1      -34.0540  -23.1640    2.6340 C.3   108  VAL108      0.0019
    165  CG2      -32.0910  -21.9480    3.5960 C.3   108  VAL108      0.0019
    166  N        -41.8580  -25.4680   -1.6060 N.3   112  TYR112     -0.1241
    167  CA       -42.8520  -24.5240   -2.1160 C.3   112  TYR112      0.1605
    168  C        -43.9010  -25.1710   -3.0070 C.2   112  TYR112      0.2264
    169  O        -45.0910  -24.8790   -2.8860 O.2   112  TYR112     -0.2867
    170  CB       -42.1880  -23.3960   -2.8950 C.3   112  TYR112      0.0534
    171  CG       -41.7650  -22.2390   -2.0390 C.ar  112  TYR112     -0.0201
    172  CD1      -40.4280  -22.0530   -1.7080 C.ar  112  TYR112     -0.0009
    173  CD2      -42.7020  -21.3200   -1.5600 C.ar  112  TYR112     -0.0009
    174  CE1      -40.0250  -20.9830   -0.9290 C.ar  112  TYR112      0.0417
    175  CE2      -42.3070  -20.2370   -0.7700 C.ar  112  TYR112      0.0417
    176  CZ       -40.9640  -20.0810   -0.4630 C.ar  112  TYR112      0.1957
    177  OH       -40.5390  -19.0340    0.3150 O.3   112  TYR112     -0.2866
    178  N        -28.0030  -18.9900   -4.3630 N.3   321  TYR321     -0.1241
    179  CA       -29.2550  -18.5010   -3.7990 C.3   321  TYR321      0.1605
    180  C        -29.1810  -18.5530   -2.2860 C.2   321  TYR321      0.2264
    181  O        -29.2150  -17.5090   -1.6300 O.2   321  TYR321     -0.2867
    182  CB       -30.4590  -19.3360   -4.2910 C.3   321  TYR321      0.0534
    183  CG       -31.8250  -18.8750   -3.7720 C.ar  321  TYR321     -0.0201
    184  CD1      -32.9910  -19.5460   -4.1380 C.ar  321  TYR321     -0.0009
    185  CD2      -31.9450  -17.8060   -2.8680 C.ar  321  TYR321     -0.0009
    186  CE1      -34.2340  -19.1800   -3.6190 C.ar  321  TYR321      0.0417
    187  CE2      -33.1890  -17.4360   -2.3420 C.ar  321  TYR321      0.0417
    188  CZ       -34.3250  -18.1290   -2.7170 C.ar  321  TYR321      0.1957
    189  OH       -35.5420  -17.8170   -2.1620 O.3   321  TYR321     -0.2866
    190  N        -27.1710  -16.1810   -0.2910 N.3   324  LEU324     -0.1231
    191  CA       -27.7500  -14.8420   -0.2060 C.3   324  LEU324      0.1693
    192  C        -28.6550  -14.7140    1.0140 C.2   324  LEU324      0.2592
    193  O        -28.7140  -13.6590    1.6470 O.2   324  LEU324     -0.2718
    194  CB       -28.5480  -14.5290   -1.4740 C.3   324  LEU324      0.0284
    195  CG       -29.2150  -13.1520   -1.5600 C.3   324  LEU324      0.0019
    196  CD1      -28.1560  -12.0510   -1.7160 C.3   324  LEU324      0.0001
    197  CD2      -30.1650  -13.1490   -2.7500 C.3   324  LEU324      0.0001
    198  N        -29.3420  -15.7990    1.3540 N.am  325  THR325     -0.1953
    199  CA       -30.2490  -15.7980    2.4910 C.3   325  THR325      0.1897
    200  C        -29.5290  -15.7230    3.8400 C.2   325  THR325      0.2313
    201  O        -30.1430  -15.3910    4.8470 O.2   325  THR325     -0.2863
    202  CB       -31.1550  -17.0450    2.4740 C.3   325  THR325      0.1794
    203  OG1      -30.4070  -18.1920    2.9030 O.3   325  THR325     -0.2208
    204  CG2      -31.6770  -17.2880    1.0610 C.3   325  THR325      0.0378
    205  N        -26.8830   -9.4270    0.2560 N.3   329  PRO329     -0.2116
    206  CA       -26.3320   -8.8890   -0.9960 C.3   329  PRO329      0.1372
    207  C        -24.8030   -8.8000   -1.0970 C.2   329  PRO329      0.2244
    208  O        -24.2350   -9.0060   -2.1730 O.2   329  PRO329     -0.2868
    209  CB       -26.9970   -7.5190   -1.1010 C.3   329  PRO329      0.0268
    210  CG       -28.3440   -7.7740   -0.4910 C.3   329  PRO329      0.0207
    211  CD       -27.9900   -8.5810    0.7430 C.3   329  PRO329      0.0892
@<TRIPOS>BOND
     1   133   134    1
     2   135   134    1
     3   135   136    2
     4   134   137    1
     5   137   138    1
     6    95    94    2
     7   122   123    1
     8   124   123    1
     9   124   125    2
    10    98    96    1
    11    94    93    1
    12   129   131   ar
    13   129   127   ar
    14   123   126    1
    15   126   127    1
    16   113   112    1
    17   131   132   ar
    18   138   139    1
    19   127   128   ar
    20    96    93    1
    21    96    97    1
    22    93    92    1
    23   178   179    1
    24   139   140    1
    25   182   179    1
    26   182   183    1
    27   112   114    1
    28   112   111    1
    29   184   183   ar
    30   184   186   ar
    31   179   180    1
    32   183   185   ar
    33   186   188   ar
    34   132   130   ar
    35    99   100    1
    36   128   130   ar
    37   111   108    1
    38    92    83   am
    39    84    83    2
    40   168   169    2
    41   168   167    1
    42    67    66   ar
    43    67    65   ar
    44   170   167    1
    45   170   171    1
    46   185   187   ar
    47    66    64   ar
    48   197   195    1
    49   188   187   ar
    50   188   189    1
    51    83    82    1
    52   107   108    1
    53   107   101   am
    54   118   117    2
    55   180   181    2
    56   100   101    1
    57   100   103    1
    58   208   207    2
    59   167   166    1
    60   108   109    1
    61   171   172   ar
    62   171   173   ar
    63    79    78    2
    64   110   109    2
    65   101   102    2
    66    65    63   ar
    67   196   195    1
    68   172   174   ar
    69   104   106    1
    70   104   103    1
    71   104   105    1
    72   173   175   ar
    73   195   194    1
    74    81    82    1
    75   109   115   am
    76    64    63   ar
    77   194   191    1
    78    82    85    1
    79    78    77    1
    80   117   116    1
    81   209   206    1
    82   209   210    1
    83   207   206    1
    84   206   205    1
    85   174   176   ar
    86    63    62    1
    87   175   176   ar
    88   115   121    1
    89   115   116    1
    90   210   211    1
    91   176   177    1
    92    61    60    2
    93   190   191    1
    94   121   120    1
    95    85    86    1
    96   191   192    1
    97   116   119    1
    98    77    80    1
    99    77    76    1
   100   205   211    1
   101   120   119    1
   102    71    70    2
   103    60    59    1
   104    62    59    1
   105    76    70   am
   106    70    69    1
   107   192   198   am
   108   192   193    2
   109    86    88   ar
   110    86    87   ar
   111   204   202    1
   112    59    58    1
   113   198   199    1
   114    88    90   ar
   115    68    69    1
   116    87    89   ar
   117    69    72    1
   118   147   145    1
   119   162   161    2
   120   202   199    1
   121   202   203    1
   122   199   200    1
   123    58    55   am
   124   164   163    1
   125   146   145    1
   126    56    55    2
   127    90    91   ar
   128    89    91   ar
   129   163   165    1
   130   163   160    1
   131    12    11    1
   132   161   160    1
   133   145   142    1
   134    55    54    1
   135    72    73    1
   136    11    10   ar
   137    11     9   ar
   138    10     8   ar
   139    74    73    1
   140   160   159    1
   141   142   141    1
   142   142   143    1
   143   200   201    2
   144    73    75    1
   145     9     7   ar
   146    49    48    2
   147     8     6   ar
   148    28    27    1
   149     7     6   ar
   150     6     5    1
   151    54    53    1
   152    54    57    1
   153    48    47    1
   154   143   144    2
   155    27    26    1
   156     5     2    1
   157    50    47    1
   158    50    51    1
   159    47    46    1
   160    26    25    1
   161    36    34    1
   162    19    18    1
   163    20    18    1
   164     2     1    1
   165     2     3    1
   166    51    52    1
   167    46    52    1
   168    25    22    1
   169     3     4    2
   170    18    17    1
   171    45    43   am
   172   148   149    1
   173   149   152    1
   174   149   150    1
   175   153   152    1
   176   153   154    1
   177    34    35    1
   178    34    33    1
   179    17    14    1
   180    22    21    1
   181    22    23    1
   182   155   154    1
   183   155   156    2
   184   157   156    1
   185    21    15   am
   186   150   151    2
   187    43    42    1
   188    43    44    2
   189    33    30    1
   190   156   158    1
   191    42    41    1
   192    15    14    1
   193    15    16    2
   194    23    24    2
   195    14    13    1
   196    30    31    1
   197    30    29    1
   198    41    38    1
   199    31    37   am
   200    31    32    2
   201    37    38    1
   202    38    39    1
   203    39    40    2
