@<TRIPOS>MOLECULE
tmp/2b0qA00.pdb
 192 180 0 0 0
SMALL
GASTEIGER

@<TRIPOS>ATOM
      1  N         64.1700   12.2740 -267.1610 N.3    23  GLU23      -0.1245
      2  CA        64.4200   12.8640 -268.4720 C.3    23  GLU23       0.1567
      3  C         63.5640   12.1720 -269.5440 C.2    23  GLU23       0.2260
      4  O         63.6800   12.4580 -270.7410 O.2    23  GLU23      -0.2867
      5  CB        65.9150   12.7200 -268.7970 C.3    23  GLU23       0.0388
      6  CG        66.3290   13.0670 -270.2190 C.3    23  GLU23       0.1160
      7  CD        66.2280   14.5440 -270.5270 C.2    23  GLU23       0.3649
      8  OE1       66.9810   15.3250 -269.9150 O.co2  23  GLU23      -0.2457
      9  OE2       65.3990   14.9240 -271.3840 O.co2  23  GLU23      -0.2457
     10  N         60.0330   11.9760 -270.7790 N.3    25  MET25      -0.1230
     11  CA        58.6500   12.4440 -270.8920 C.3    25  MET25       0.1702
     12  C         57.6910   11.3500 -271.3800 C.2    25  MET25       0.2593
     13  O         56.4790   11.5660 -271.4560 O.2    25  MET25      -0.2718
     14  CB        58.5700   13.6510 -271.8490 C.3    25  MET25       0.0401
     15  CG        59.0360   14.9990 -271.2650 C.3    25  MET25       0.0596
     16  SD        59.0110   16.4030 -272.4690 S.3    25  MET25      -0.1393
     17  CE        57.2660   16.9810 -272.3770 C.3    25  MET25       0.0692
     18  N         58.2320   10.1760 -271.6860 N.am   26  SER26      -0.1939
     19  CA        57.4270    9.0680 -272.1810 C.3    26  SER26       0.2040
     20  C         56.7660    8.2140 -271.0870 C.2    26  SER26       0.2485
     21  O         56.8960    8.4930 -269.9000 O.2    26  SER26      -0.2729
     22  CB        58.2940    8.1770 -273.0720 C.3    26  SER26       0.2129
     23  OG        58.9130    7.1470 -272.3290 O.3    26  SER26      -0.2179
     24  N         56.0310    7.1640 -271.4870 N.am   27  PRO27      -0.2726
     25  CA        55.3500    6.2660 -270.5500 C.3    27  PRO27       0.1402
     26  C         56.3070    5.2180 -270.0030 C.2    27  PRO27       0.2269
     27  O         55.9000    4.2840 -269.3130 O.2    27  PRO27      -0.2865
     28  CB        54.2690    5.6110 -271.4090 C.3    27  PRO27       0.0296
     29  CG        54.1470    6.5070 -272.6120 C.3    27  PRO27       0.0237
     30  CD        55.5540    6.9170 -272.8560 C.3    27  PRO27       0.0939
     31  N         56.1780    2.4600 -278.2300 N.3    54  TYR54      -0.1241
     32  CA        56.7270    2.8680 -276.9540 C.3    54  TYR54       0.1605
     33  C         57.2050    1.5980 -276.2780 C.2    54  TYR54       0.2264
     34  O         58.0780    1.6340 -275.4250 O.2    54  TYR54      -0.2867
     35  CB        55.6660    3.5200 -276.0850 C.3    54  TYR54       0.0534
     36  CG        55.1110    4.8200 -276.6110 C.ar   54  TYR54      -0.0201
     37  CD1       54.3860    4.8660 -277.7950 C.ar   54  TYR54      -0.0009
     38  CD2       55.2690    5.9990 -275.8930 C.ar   54  TYR54      -0.0009
     39  CE1       53.8240    6.0600 -278.2480 C.ar   54  TYR54       0.0417
     40  CE2       54.7140    7.1930 -276.3310 C.ar   54  TYR54       0.0417
     41  CZ        53.9910    7.2210 -277.5070 C.ar   54  TYR54       0.1957
     42  OH        53.4320    8.4080 -277.9330 O.3    54  TYR54      -0.2866
     43  N         72.7480   17.1310 -275.1200 N.3    98  SER98      -0.1217
     44  CA        72.1460   18.2550 -274.4030 C.3    98  SER98       0.1889
     45  C         73.0350   18.7160 -273.2600 C.2    98  SER98       0.2288
     46  O         72.9590   19.8600 -272.8190 O.2    98  SER98      -0.2866
     47  CB        70.8030   17.8210 -273.8440 C.3    98  SER98       0.2089
     48  OG        70.9220   16.5040 -273.3390 O.3    98  SER98      -0.2183
     49  N         75.4700   22.0040 -273.0960 N.3   102  GLU102     -0.1245
     50  CA        74.3790   22.5060 -272.2510 C.3   102  GLU102      0.1567
     51  C         74.3850   24.0310 -272.1510 C.2   102  GLU102      0.2260
     52  O         73.3300   24.6720 -272.2160 O.2   102  GLU102     -0.2867
     53  CB        74.4760   21.9000 -270.8480 C.3   102  GLU102      0.0388
     54  CG        73.3850   22.3600 -269.8910 C.3   102  GLU102      0.1160
     55  CD        71.9900   22.0030 -270.3720 C.2   102  GLU102      0.3649
     56  OE1       71.5830   22.4930 -271.4460 O.co2 102  GLU102     -0.2457
     57  OE2       71.3000   21.2310 -269.6730 O.co2 102  GLU102     -0.2457
     58  N         50.0290   18.4010 -273.1640 N.3   156  GLU156     -0.1231
     59  CA        51.2880   18.1630 -273.8810 C.3   156  GLU156      0.1699
     60  C         52.0110   19.4900 -274.1560 C.2   156  GLU156      0.2592
     61  O         51.4790   20.5640 -273.8740 O.2   156  GLU156     -0.2718
     62  CB        50.9990   17.4430 -275.2020 C.3   156  GLU156      0.0402
     63  CG        52.1850   17.2850 -276.1430 C.3   156  GLU156      0.1161
     64  CD        53.1220   16.1700 -275.7310 C.2   156  GLU156      0.3649
     65  OE1       52.6490   15.0200 -275.6140 O.co2 156  GLU156     -0.2457
     66  OE2       54.3270   16.4400 -275.5300 O.co2 156  GLU156     -0.2457
     67  N         53.2230   19.4150 -274.7020 N.am  157  ASN157     -0.1974
     68  CA        54.0020   20.6160 -275.0080 C.3   157  ASN157      0.1688
     69  C         53.8660   21.0440 -276.4540 C.2   157  ASN157      0.2292
     70  O         54.8560   21.1220 -277.1760 O.2   157  ASN157     -0.2864
     71  CB        55.4840   20.4030 -274.6910 C.3   157  ASN157      0.1181
     72  CG        55.8100   20.6690 -273.2300 C.2   157  ASN157      0.2629
     73  OD1       56.9180   20.3880 -272.7620 O.2   157  ASN157     -0.2716
     74  ND2       54.8440   21.2210 -272.5020 N.am  157  ASN157     -0.0877
     75  N         53.3570   22.9310 -280.0840 N.3   159  GLU159     -0.1245
     76  CA        54.2970   23.8230 -280.7530 C.3   159  GLU159      0.1567
     77  C         53.9580   25.2860 -280.9890 C.2   159  GLU159      0.2260
     78  O         54.6610   25.9410 -281.7530 O.2   159  GLU159     -0.2867
     79  CB        54.7040   23.2010 -282.0970 C.3   159  GLU159      0.0388
     80  CG        55.7340   22.0960 -281.9770 C.3   159  GLU159      0.1160
     81  CD        57.1520   22.6300 -281.9000 C.2   159  GLU159      0.3649
     82  OE1       57.9950   21.9910 -281.2280 O.co2 159  GLU159     -0.2457
     83  OE2       57.4240   23.6820 -282.5260 O.co2 159  GLU159     -0.2457
     84  N         62.7920    9.7580 -283.1580 N.3   189  ASP189     -0.1239
     85  CA        62.7770   10.6600 -282.0140 C.3   189  ASP189      0.1674
     86  C         64.1550   11.2920 -281.8600 C.2   189  ASP189      0.2266
     87  O         64.7420   11.2750 -280.7750 O.2   189  ASP189     -0.2867
     88  CB        62.4340    9.8790 -280.7540 C.3   189  ASP189      0.1410
     89  CG        61.9550   10.7640 -279.6400 C.2   189  ASP189      0.3668
     90  OD1       62.2190   11.9870 -279.7040 O.co2 189  ASP189     -0.2456
     91  OD2       61.3220   10.2240 -278.7040 O.co2 189  ASP189     -0.2456
     92  N         66.6310   13.8270 -281.1200 N.3   191  GLY191     -0.1210
     93  CA        66.6750   15.0210 -280.2980 C.3   191  GLY191      0.1956
     94  C         67.8410   14.8980 -279.3470 C.2   191  GLY191      0.2612
     95  O         68.2120   13.7880 -278.9720 O.2   191  GLY191     -0.2717
     96  N         68.4090   16.0340 -278.9490 N.am  192  ASP192     -0.1959
     97  CA        69.5750   16.0690 -278.0610 C.3   192  ASP192      0.1840
     98  C         69.4740   15.2220 -276.7980 C.2   192  ASP192      0.2623
     99  O         70.4820   14.9390 -276.1590 O.2   192  ASP192     -0.2715
    100  CB        69.9220   17.5230 -277.6830 C.3   192  ASP192      0.1450
    101  CG        68.8160   18.2140 -276.8940 C.2   192  ASP192      0.3671
    102  OD1       68.3300   17.6430 -275.8940 O.co2 192  ASP192     -0.2456
    103  OD2       68.4330   19.3430 -277.2600 O.co2 192  ASP192     -0.2456
    104  N         68.2600   14.8150 -276.4460 N.am  193  SER193     -0.1936
    105  CA        68.0200   14.0080 -275.2500 C.3   193  SER193      0.2055
    106  C         68.2320   12.5210 -275.5410 C.2   193  SER193      0.2643
    107  O         68.4780   11.7160 -274.6320 O.2   193  SER193     -0.2714
    108  CB        66.5870   14.2630 -274.7630 C.3   193  SER193      0.2130
    109  OG        66.1700   13.3460 -273.7730 O.3   193  SER193     -0.2179
    110  N         68.1440   12.1610 -276.8170 N.am  194  ASN194     -0.1971
    111  CA        68.3200   10.7780 -277.2090 C.3   194  ASN194      0.1688
    112  C         69.5860   10.5500 -278.0190 C.2   194  ASN194      0.2292
    113  O         69.7850    9.4570 -278.5340 O.2   194  ASN194     -0.2864
    114  CB        67.1030   10.2930 -277.9930 C.3   194  ASN194      0.1181
    115  CG        65.8030   10.5480 -277.2560 C.2   194  ASN194      0.2629
    116  OD1       65.6660   10.2290 -276.0730 O.2   194  ASN194     -0.2716
    117  ND2       64.8360   11.1250 -277.9540 N.am  194  ASN194     -0.0877
    118  N         66.7450    5.4310 -277.1310 N.3   207  ASP207     -0.1239
    119  CA        65.3300    5.7490 -277.3320 C.3   207  ASP207      0.1674
    120  C         64.9950    5.3310 -278.7750 C.2   207  ASP207      0.2266
    121  O         64.7210    6.1800 -279.6270 O.2   207  ASP207     -0.2867
    122  CB        65.1090    7.2620 -277.1460 C.3   207  ASP207      0.1410
    123  CG        63.7660    7.6000 -276.5060 C.2   207  ASP207      0.3668
    124  OD1       62.8260    6.7810 -276.6060 O.co2 207  ASP207     -0.2456
    125  OD2       63.6510    8.7010 -275.9160 O.co2 207  ASP207     -0.2456
    126  N         60.6030    4.0860 -282.1870 N.3   210  ARG210     -0.1245
    127  CA        60.0700    4.3600 -283.5170 C.3   210  ARG210      0.1563
    128  C         61.1510    4.2670 -284.5670 C.2   210  ARG210      0.2260
    129  O         61.0160    4.8150 -285.6570 O.2   210  ARG210     -0.2867
    130  CB        59.4600    5.7460 -283.5640 C.3   210  ARG210      0.0307
    131  CG        58.3160    5.8900 -282.6260 C.3   210  ARG210      0.0489
    132  CD        57.9860    7.3330 -282.4160 C.3   210  ARG210      0.2205
    133  NE        57.1120    7.4780 -281.2640 N.pl3 210  ARG210     -0.0865
    134  CZ        57.1270    8.5350 -280.4700 C.cat 210  ARG210      0.5346
    135  NH1       57.9730    9.5290 -280.7210 N.pl3 210  ARG210      0.1354
    136  NH2       56.3150    8.5890 -279.4260 N.pl3 210  ARG210      0.1354
    137  N         62.9020   21.3740 -285.9210 N.3   225  ARG225     -0.1245
    138  CA        62.1400   21.6910 -284.7150 C.3   225  ARG225      0.1563
    139  C         63.0670   22.0400 -283.5560 C.2   225  ARG225      0.2260
    140  O         62.9480   23.1050 -282.9540 O.2   225  ARG225     -0.2867
    141  CB        61.2510   20.5070 -284.3050 C.3   225  ARG225      0.0307
    142  CG        60.2730   20.8450 -283.2050 C.3   225  ARG225      0.0489
    143  CD        59.3940   19.6690 -282.8500 C.3   225  ARG225      0.2205
    144  NE        60.1360   18.5770 -282.2200 N.pl3 225  ARG225     -0.0865
    145  CZ        59.5770   17.4420 -281.8040 C.cat 225  ARG225      0.5346
    146  NH1       60.3170   16.4960 -281.2420 N.pl3 225  ARG225      0.1354
    147  NH2       58.2710   17.2530 -281.9520 N.pl3 225  ARG225      0.1354
    148  N         63.5810   25.9620 -281.9050 N.3   229  GLU229     -0.1231
    149  CA        63.2330   26.2530 -280.5190 C.3   229  GLU229      0.1699
    150  C         64.4120   26.4870 -279.5760 C.2   229  GLU229      0.2592
    151  O         64.2910   27.2450 -278.6190 O.2   229  GLU229     -0.2718
    152  CB        62.3840   25.1160 -279.9560 C.3   229  GLU229      0.0402
    153  CG        63.2150   23.9680 -279.4220 C.3   229  GLU229      0.1161
    154  CD        62.3750   22.8310 -278.8880 C.2   229  GLU229      0.3649
    155  OE1       61.2630   23.1040 -278.3790 O.co2 229  GLU229     -0.2457
    156  OE2       62.8370   21.6690 -278.9650 O.co2 229  GLU229     -0.2457
    157  N         65.5390   25.8270 -279.8390 N.am  230  ASP230     -0.1974
    158  CA        66.7310   25.9280 -278.9880 C.3   230  ASP230      0.1709
    159  C         67.7810   26.9600 -279.3680 C.2   230  ASP230      0.2293
    160  O         68.6110   27.3100 -278.5420 O.2   230  ASP230     -0.2864
    161  CB        67.4020   24.5580 -278.8640 C.3   230  ASP230      0.1436
    162  CG        66.6370   23.6190 -277.9510 C.2   230  ASP230      0.3671
    163  OD1       66.8800   22.3910 -278.0140 O.co2 230  ASP230     -0.2456
    164  OD2       65.7960   24.1170 -277.1620 O.co2 230  ASP230     -0.2456
    165  N         54.1750   14.5160 -284.8340 N.3   260  ASP260     -0.1225
    166  CA        54.7430   14.2340 -283.5170 C.3   260  ASP260      0.1805
    167  C         53.9880   14.9000 -282.3700 C.2   260  ASP260      0.2597
    168  O         54.1880   14.5650 -281.2050 O.2   260  ASP260     -0.2718
    169  CB        56.2040   14.6800 -283.4710 C.3   260  ASP260      0.1424
    170  CG        56.9980   13.9640 -282.3890 C.2   260  ASP260      0.3668
    171  OD1       57.6530   14.6590 -281.5780 O.co2 260  ASP260     -0.2456
    172  OD2       56.9700   12.7070 -282.3580 O.co2 260  ASP260     -0.2456
    173  N         53.1070   15.8340 -282.7040 N.am  261  GLU261     -0.1979
    174  CA        52.3510   16.5580 -281.6990 C.3   261  GLU261      0.1602
    175  C         51.6100   15.7040 -280.6710 C.2   261  GLU261      0.2287
    176  O         51.5550   16.0600 -279.4930 O.2   261  GLU261     -0.2864
    177  CB        51.3650   17.5000 -282.3820 C.3   261  GLU261      0.0415
    178  CG        51.2140   18.8060 -281.6440 C.3   261  GLU261      0.1163
    179  CD        52.5230   19.5560 -281.5660 C.2   261  GLU261      0.3649
    180  OE1       53.5720   18.9100 -281.3790 O.co2 261  GLU261     -0.2457
    181  OE2       52.5060   20.7920 -281.6820 O.co2 261  GLU261     -0.2457
    182  N         52.3210   12.3310 -280.0370 N.3   263  PHE263     -0.1241
    183  CA        53.0860   11.2070 -279.4990 C.3   263  PHE263      0.1605
    184  C         53.9070   11.5890 -278.2610 C.2   263  PHE263      0.2264
    185  O         54.2300   10.6880 -277.4500 O.2   263  PHE263     -0.2867
    186  CB        54.0100   10.6170 -280.5680 C.3   263  PHE263      0.0534
    187  CG        53.2910    9.8380 -281.6400 C.ar  263  PHE263     -0.0203
    188  CD1       52.8520   10.4640 -282.8040 C.ar  263  PHE263     -0.0042
    189  CD2       53.0490    8.4720 -281.4820 C.ar  263  PHE263     -0.0042
    190  CE1       52.1850    9.7410 -283.7920 C.ar  263  PHE263     -0.0003
    191  CE2       52.3830    7.7460 -282.4650 C.ar  263  PHE263     -0.0003
    192  CZ        51.9530    8.3820 -283.6210 C.ar  263  PHE263     -0.0000
@<TRIPOS>BOND
     1   137   138    1
     2   129   128    2
     3   165   166    1
     4   138   141    1
     5   138   139    1
     6   128   127    1
     7   141   142    1
     8   190   192   ar
     9   190   188   ar
    10   192   191   ar
    11   130   127    1
    12   130   131    1
    13   139   140    2
    14   166   169    1
    15   166   167    1
    16   127   126    1
    17   169   170    1
    18   142   143    1
    19    84    85    1
    20   143   144    1
    21   188   187   ar
    22   173   167   am
    23   173   174    1
    24   131   132    1
    25    83    81   ar
    26   191   189   ar
    27   132   133    1
    28   170   172   ar
    29   170   171   ar
    30   177   174    1
    31   177   178    1
    32   167   168    2
    33   144   145    2
    34    79    80    1
    35    79    76    1
    36    85    86    1
    37    85    88    1
    38    80    81    1
    39   147   145    1
    40   148   149    1
    41    81    82   ar
    42    86    87    2
    43   145   146    1
    44    78    77    2
    45   174   175    1
    46   181   179   ar
    47   178   179    1
    48   187   189   ar
    49   187   186    1
    50   179   180   ar
    51   133   134    2
    52    92    93    1
    53    77    76    1
    54    88    89    1
    55    76    75    1
    56   135   134    1
    57   175   176    2
    58   186   183    1
    59   149   152    1
    60   149   150    1
    61   134   136    1
    62    93    94    1
    63   182   183    1
    64   152   153    1
    65   157   150   am
    66   157   158    1
    67    90    89   ar
    68    89    91   ar
    69   121   120    2
    70   150   151    2
    71   183   184    1
    72   153   154    1
    73   159   158    1
    74   159   160    2
    75    94    95    2
    76    94    96   am
    77   158   161    1
    78   156   154   ar
    79    96    97    1
    80   154   155   ar
    81   161   162    1
    82   120   119    1
    83   113   112    2
    84   184   185    2
    85    39    37   ar
    86    39    41   ar
    87    31    32    1
    88    97   100    1
    89    97    98    1
    90   112   111    1
    91   163   162   ar
    92   114   115    1
    93   114   111    1
    94   117   115   am
    95   162   164   ar
    96    42    41    1
    97    37    36   ar
    98   100   101    1
    99    41    40   ar
   100   119   122    1
   101   119   118    1
   102   103   101   ar
   103   115   116    2
   104   111   110    1
   105    70    69    2
   106   122   123    1
   107    32    33    1
   108    32    35    1
   109   101   102   ar
   110   110   106   am
   111    98   104   am
   112    98    99    2
   113    36    35    1
   114    36    38   ar
   115   124   123   ar
   116   123   125   ar
   117    69    68    1
   118   104   105    1
   119    40    38   ar
   120    33    34    2
   121    63    64    1
   122    63    62    1
   123    64    65   ar
   124    64    66   ar
   125   106   105    1
   126   106   107    2
   127   105   108    1
   128    62    59    1
   129    43    44    1
   130    68    67    1
   131    68    71    1
   132   108   109    1
   133    67    60   am
   134    71    72    1
   135    44    47    1
   136    44    45    1
   137    60    59    1
   138    60    61    2
   139    59    58    1
   140    47    48    1
   141    45    46    2
   142    72    73    2
   143    72    74   am
   144    49    50    1
   145    22    23    1
   146    22    19    1
   147    30    29    1
   148    30    24    1
   149    29    28    1
   150    16    17    1
   151    16    15    1
   152    50    51    1
   153    50    53    1
   154    52    51    2
   155    19    18    1
   156    19    20    1
   157    14    15    1
   158    14    11    1
   159    18    12   am
   160    24    20   am
   161    24    25    1
   162    13    12    2
   163    56    55   ar
   164    28    25    1
   165     9     7   ar
   166    12    11    1
   167    20    21    2
   168    11    10    1
   169    53    54    1
   170     4     3    2
   171    25    26    1
   172     7     6    1
   173     7     8   ar
   174    55    54    1
   175    55    57   ar
   176     6     5    1
   177    26    27    2
   178     3     2    1
   179     5     2    1
   180     2     1    1
