@<TRIPOS>MOLECULE
tmp/2b1mA01.pdb
 103 102 0 0 0
SMALL
GASTEIGER

@<TRIPOS>ATOM
      1  N         13.0880   32.4860   46.2860 N.3    18  PHE18      -0.1227
      2  CA        12.9230   31.3140   47.1450 C.3    18  PHE18       0.1736
      3  C         11.4350   31.0570   47.3860 C.2    18  PHE18       0.2595
      4  O         10.7540   31.8720   48.0150 O.2    18  PHE18      -0.2718
      5  CB        13.6410   31.5720   48.4770 C.3    18  PHE18       0.0547
      6  CG        13.7470   30.3650   49.3590 C.ar   18  PHE18      -0.0202
      7  CD1       14.5650   29.2960   49.0030 C.ar   18  PHE18      -0.0042
      8  CD2       13.0360   30.2970   50.5550 C.ar   18  PHE18      -0.0042
      9  CE1       14.6760   28.1740   49.8270 C.ar   18  PHE18      -0.0003
     10  CE2       13.1390   29.1800   51.3860 C.ar   18  PHE18      -0.0003
     11  CZ        13.9610   28.1170   51.0200 C.ar   18  PHE18      -0.0000
     12  N         10.9350   29.9180   46.9070 N.am   19  GLN19      -0.1965
     13  CA         9.5140   29.5840   47.0450 C.3    19  GLN19       0.1733
     14  C          9.1060   28.9690   48.3840 C.2    19  GLN19       0.2617
     15  O          7.9130   28.8840   48.6930 O.2    19  GLN19      -0.2715
     16  CB         9.0870   28.6400   45.9180 C.3    19  GLN19       0.0408
     17  CG         9.5720   27.2120   46.0940 C.3    19  GLN19       0.0908
     18  CD         9.2360   26.3350   44.9060 C.2    19  GLN19       0.2608
     19  OE1        9.8000   26.4980   43.8230 O.2    19  GLN19      -0.2717
     20  NE2        8.3060   25.4050   45.0990 N.am   19  GLN19      -0.0878
     21  N         10.0880   28.5320   49.1670 N.am   20  GLY20      -0.1940
     22  CA         9.7960   27.9320   50.4570 C.3    20  GLY20       0.2014
     23  C          8.9750   26.6560   50.3710 C.2    20  GLY20       0.2639
     24  O          8.9790   25.9680   49.3490 O.2    20  GLY20      -0.2714
     25  N          8.2700   26.3370   51.4540 N.am   21  GLN21      -0.1963
     26  CA         7.4390   25.1390   51.5080 C.3    21  GLN21       0.1733
     27  C          6.0670   25.4190   50.9130 C.2    21  GLN21       0.2616
     28  O          5.0620   25.5090   51.6210 O.2    21  GLN21      -0.2715
     29  CB         7.2940   24.6560   52.9520 C.3    21  GLN21       0.0408
     30  CG         8.6200   24.3140   53.6100 C.3    21  GLN21       0.0908
     31  CD         9.4680   23.3850   52.7610 C.2    21  GLN21       0.2608
     32  OE1        9.0380   22.2910   52.3940 O.2    21  GLN21      -0.2717
     33  NE2       10.6830   23.8190   52.4440 N.am   21  GLN21      -0.0878
     34  N          6.0480   25.5470   49.5940 N.am   22  CYS22      -0.1954
     35  CA         4.8400   25.8320   48.8350 C.3    22  CYS22       0.1843
     36  C          5.1470   25.3800   47.4040 C.2    22  CYS22       0.2626
     37  O          6.1570   25.7850   46.8340 O.2    22  CYS22      -0.2714
     38  CB         4.5540   27.3440   48.8960 C.3    22  CYS22       0.0997
     39  SG         3.3200   27.9930   47.7220 S.3    22  CYS22      -0.0797
     40  N          4.2960   24.5210   46.8470 N.am   23  GLY23      -0.1954
     41  CA         4.5080   24.0250   45.4930 C.3    23  GLY23       0.1869
     42  C          4.1010   25.0520   44.4570 C.2    23  GLY23       0.2309
     43  O          3.2080   24.8170   43.6410 O.2    23  GLY23      -0.2863
     44  N          6.2240   26.4730   42.1060 N.3    25  GLY25      -0.1225
     45  CA         7.2030   26.6220   41.0420 C.3    25  GLY25       0.1811
     46  C          6.5330   27.1610   39.7890 C.2    25  GLY25       0.2280
     47  O          7.1230   27.9470   39.0420 O.2    25  GLY25      -0.2866
     48  N         10.9860   17.2920   38.8820 N.3   143  ALA143     -0.1231
     49  CA        12.1230   17.7180   39.6930 C.3   143  ALA143      0.1694
     50  C         12.4930   16.7600   40.8290 C.2   143  ALA143      0.2591
     51  O         12.9910   17.1920   41.8660 O.2   143  ALA143     -0.2718
     52  CB        11.8440   19.1110   40.2610 C.3   143  ALA143      0.0304
     53  N         12.2730   15.4630   40.6290 N.am  144  LYS144     -0.1980
     54  CA        12.5760   14.4690   41.6590 C.3   144  LYS144      0.1596
     55  C         14.0310   14.4630   42.1420 C.2   144  LYS144      0.2287
     56  O         14.2940   14.1290   43.2960 O.2   144  LYS144     -0.2864
     57  CB        12.1950   13.0650   41.1610 C.3   144  LYS144      0.0298
     58  CG        13.0400   12.5630   39.9950 C.3   144  LYS144      0.0038
     59  CD        12.4420   11.3120   39.3420 C.3   144  LYS144      0.0206
     60  CE        12.4750   10.1050   40.2650 C.3   144  LYS144      0.1093
     61  NZ        11.9020    8.8970   39.6010 N.3   144  LYS144     -0.1314
     62  N         16.6840   18.0780   44.6450 N.3   147  HIS147     -0.1241
     63  CA        17.2690   18.1970   45.9780 C.3   147  HIS147      0.1621
     64  C         18.6270   17.4930   46.0800 C.2   147  HIS147      0.2264
     65  O         19.2940   17.5760   47.1070 O.2   147  HIS147     -0.2867
     66  CB        16.3100   17.6570   47.0520 C.3   147  HIS147      0.0745
     67  CG        16.1040   16.1750   47.0060 C.ar  147  HIS147      0.0817
     68  ND1       15.5160   15.5350   45.9360 N.ar  147  HIS147     -0.2268
     69  CD2       16.3870   15.2080   47.9120 C.ar  147  HIS147      0.1154
     70  CE1       15.4430   14.2400   46.1850 C.ar  147  HIS147      0.1986
     71  NE2       15.9650   14.0150   47.3780 N.ar  147  HIS147     -0.2212
     72  N          5.6930   18.0260   38.6230 N.3   166  ASN166     -0.1225
     73  CA         5.6630   18.4780   40.0060 C.3   166  ASN166      0.1785
     74  C          6.4510   19.7700   40.1910 C.2   166  ASN166      0.2597
     75  O          6.7050   20.1970   41.3200 O.2   166  ASN166     -0.2718
     76  CB         6.2570   17.3920   40.9020 C.3   166  ASN166      0.1169
     77  CG         7.5990   16.8980   40.3940 C.2   166  ASN166      0.2627
     78  OD1        8.5000   17.6910   40.1230 O.2   166  ASN166     -0.2716
     79  ND2        7.7390   15.5850   40.2620 N.am  166  ASN166     -0.0877
     80  N          6.8290   20.4010   39.0840 N.am  167  HIS167     -0.1975
     81  CA         7.6080   21.6280   39.1710 C.3   167  HIS167      0.1656
     82  C          7.7360   22.3010   37.8030 C.2   167  HIS167      0.2291
     83  O          7.4200   21.7050   36.7740 O.2   167  HIS167     -0.2864
     84  CB         8.9920   21.2860   39.7430 C.3   167  HIS167      0.0771
     85  CG         9.7950   22.4760   40.1640 C.ar  167  HIS167      0.0820
     86  ND1        9.2830   23.4770   40.9610 N.ar  167  HIS167     -0.2267
     87  CD2       11.0870   22.8060   39.9280 C.ar  167  HIS167      0.1154
     88  CE1       10.2250   24.3740   41.1960 C.ar  167  HIS167      0.1986
     89  NE2       11.3300   23.9910   40.5800 N.ar  167  HIS167     -0.2212
     90  N         14.6120   28.1280   44.1630 N.3   189  TRP189     -0.1241
     91  CA        14.9390   27.5140   45.4420 C.3   189  TRP189      0.1605
     92  C         16.0780   28.2470   46.1390 C.2   189  TRP189      0.2264
     93  O         16.8180   27.6480   46.9190 O.2   189  TRP189     -0.2867
     94  CB        15.3330   26.0490   45.2240 C.3   189  TRP189      0.0550
     95  CG        14.1810   25.1250   44.9450 C.ar  189  TRP189      0.0003
     96  CD1       12.8910   25.4740   44.6500 C.ar  189  TRP189      0.0946
     97  CD2       14.2240   23.6940   44.9210 C.ar  189  TRP189      0.0152
     98  NE1       12.1310   24.3480   44.4450 N.ar  189  TRP189     -0.2442
     99  CE2       12.9240   23.2410   44.6040 C.ar  189  TRP189      0.0810
    100  CE3       15.2380   22.7480   45.1350 C.ar  189  TRP189      0.0012
    101  CZ2       12.6090   21.8820   44.4960 C.ar  189  TRP189      0.0191
    102  CZ3       14.9240   21.3970   45.0280 C.ar  189  TRP189      0.0001
    103  CH2       13.6180   20.9790   44.7110 C.ar  189  TRP189      0.0015
@<TRIPOS>BOND
     1    83    82    2
     2    82    81    1
     3    72    73    1
     4    48    49    1
     5    47    46    2
     6    80    81    1
     7    80    74   am
     8    81    84    1
     9    59    58    1
    10    59    60    1
    11    61    60    1
    12    49    52    1
    13    49    50    1
    14    84    85    1
    15    46    45    1
    16    87    85   ar
    17    87    89   ar
    18    58    57    1
    19    73    74    1
    20    73    76    1
    21    78    77    2
    22    85    86   ar
    23    74    75    2
    24    79    77   am
    25    77    76    1
    26    89    88   ar
    27    53    50   am
    28    53    54    1
    29    50    51    2
    30    86    88   ar
    31    45    44    1
    32    57    54    1
    33    54    55    1
    34    55    56    2
    35    43    42    2
    36    19    18    2
    37    90    91    1
    38    98    99   ar
    39    98    96   ar
    40    42    41    1
    41   101    99   ar
    42   101   103   ar
    43    99    97   ar
    44    62    63    1
    45    96    95   ar
    46   103   102   ar
    47    18    20   am
    48    18    17    1
    49    97    95   ar
    50    97   100   ar
    51    95    94    1
    52   102   100   ar
    53    94    91    1
    54    91    92    1
    55    41    40    1
    56    16    17    1
    57    16    13    1
    58    68    70   ar
    59    68    67   ar
    60    63    64    1
    61    63    66    1
    62    64    65    2
    63    92    93    2
    64    70    71   ar
    65     1     2    1
    66    37    36    2
    67    40    36   am
    68    12    13    1
    69    12     3   am
    70    67    66    1
    71    67    69   ar
    72    13    14    1
    73     2     3    1
    74     2     5    1
    75    71    69   ar
    76     3     4    2
    77    36    35    1
    78    39    38    1
    79    14    15    2
    80    14    21   am
    81     5     6    1
    82    35    38    1
    83    35    34    1
    84     7     6   ar
    85     7     9   ar
    86    21    22    1
    87    24    23    2
    88     6     8   ar
    89    34    27   am
    90     9    11   ar
    91    23    22    1
    92    23    25   am
    93     8    10   ar
    94    27    26    1
    95    27    28    2
    96    11    10   ar
    97    25    26    1
    98    26    29    1
    99    32    31    2
   100    33    31   am
   101    31    30    1
   102    29    30    1
