@<TRIPOS>MOLECULE
tmp/2b1nA00.pdb
 130 129 0 0 0
SMALL
GASTEIGER

@<TRIPOS>ATOM
      1  N          9.5580   31.2040   47.2830 N.3    19  GLN19      -0.1231
      2  CA         8.1310   30.9280   47.4140 C.3    19  GLN19       0.1698
      3  C          7.6970   30.3840   48.7760 C.2    19  GLN19       0.2593
      4  O          6.5030   30.2960   49.0580 O.2    19  GLN19      -0.2718
      5  CB         7.6850   29.9640   46.3170 C.3    19  GLN19       0.0381
      6  CG         8.2200   28.5570   46.4560 C.3    19  GLN19       0.0905
      7  CD         7.8820   27.7060   45.2510 C.2    19  GLN19       0.2608
      8  OE1        8.3250   27.9900   44.1370 O.2    19  GLN19      -0.2717
      9  NE2        7.0870   26.6600   45.4630 N.am   19  GLN19      -0.0878
     10  N          8.6530   30.0170   49.6200 N.am   20  GLY20      -0.1942
     11  CA         8.3020   29.4990   50.9300 C.3    20  GLY20       0.2014
     12  C          7.4930   28.2170   50.8550 C.2    20  GLY20       0.2639
     13  O          7.5110   27.5240   49.8380 O.2    20  GLY20      -0.2714
     14  N          6.7800   27.8990   51.9310 N.am   21  GLN21      -0.1963
     15  CA         5.9670   26.6880   51.9820 C.3    21  GLN21       0.1733
     16  C          4.5980   26.9090   51.3410 C.2    21  GLN21       0.2616
     17  O          3.5680   26.9210   52.0190 O.2    21  GLN21      -0.2715
     18  CB         5.7980   26.2340   53.4330 C.3    21  GLN21       0.0408
     19  CG         7.1140   25.9020   54.1240 C.3    21  GLN21       0.0908
     20  CD         7.8800   24.7900   53.4250 C.2    21  GLN21       0.2608
     21  OE1        7.3850   23.6670   53.2980 O.2    21  GLN21      -0.2717
     22  NE2        9.0940   25.0970   52.9680 N.am   21  GLN21      -0.0878
     23  N          4.6060   27.0740   50.0230 N.am   22  CYS22      -0.1954
     24  CA         3.4010   27.3050   49.2460 C.3    22  CYS22       0.1843
     25  C          3.7070   26.7750   47.8380 C.2    22  CYS22       0.2626
     26  O          4.7900   27.0210   47.3060 O.2    22  CYS22      -0.2714
     27  CB         3.0860   28.8150   49.2490 C.3    22  CYS22       0.0997
     28  SG         1.8190   29.4270   48.0810 S.3    22  CYS22      -0.0797
     29  N          2.7740   26.0200   47.2560 N.am   23  GLY23      -0.1954
     30  CA         2.9940   25.4610   45.9300 C.3    23  GLY23       0.1869
     31  C          2.6640   26.4580   44.8400 C.2    23  GLY23       0.2309
     32  O          1.7850   26.2250   44.0060 O.2    23  GLY23      -0.2863
     33  N          4.8720   27.7960   42.3510 N.3    25  GLY25      -0.1225
     34  CA         5.8540   27.9540   41.2910 C.3    25  GLY25       0.1811
     35  C          5.1610   28.4960   40.0570 C.2    25  GLY25       0.2280
     36  O          5.7250   29.2800   39.2930 O.2    25  GLY25      -0.2866
     37  N         -2.0500   28.0880   46.8000 N.3    63  CYS63      -0.1221
     38  CA        -0.8540   27.4280   47.2970 C.3    63  CYS63       0.1808
     39  C         -0.7970   25.9200   47.0770 C.2    63  CYS63       0.2601
     40  O          0.2240   25.2980   47.3540 O.2    63  CYS63      -0.2717
     41  CB        -0.6430   27.7420   48.7860 C.3    63  CYS63       0.0970
     42  SG         0.0530   29.4020   49.1060 S.3    63  CYS63      -0.0800
     43  N         -1.8800   25.3270   46.5900 N.am   64  TYR64      -0.1962
     44  CA        -1.8690   23.8960   46.3190 C.3    64  TYR64       0.1771
     45  C         -1.1570   23.7130   44.9760 C.2    64  TYR64       0.2619
     46  O         -0.2160   22.9290   44.8590 O.2    64  TYR64      -0.2715
     47  CB        -3.2930   23.3380   46.2370 C.3    64  TYR64       0.0574
     48  CG        -3.3240   21.8460   45.9960 C.ar   64  TYR64      -0.0198
     49  CD1       -3.0470   20.9460   47.0260 C.ar   64  TYR64      -0.0009
     50  CD2       -3.5720   21.3320   44.7220 C.ar   64  TYR64      -0.0009
     51  CE1       -3.0110   19.5670   46.7930 C.ar   64  TYR64       0.0417
     52  CE2       -3.5370   19.9590   44.4780 C.ar   64  TYR64       0.0417
     53  CZ        -3.2550   19.0850   45.5170 C.ar   64  TYR64       0.1957
     54  OH        -3.2000   17.7340   45.2690 O.3    64  TYR64      -0.2866
     55  N         -1.6210   24.4430   43.9670 N.am   65  ASN65      -0.1972
     56  CA        -1.0270   24.4140   42.6330 C.3    65  ASN65       0.1688
     57  C         -1.8350   25.3400   41.7400 C.2    65  ASN65       0.2292
     58  O         -2.8820   25.8460   42.1470 O.2    65  ASN65      -0.2864
     59  CB        -1.0280   23.0020   42.0350 C.3    65  ASN65       0.1181
     60  CG         0.2060   22.7330   41.1600 C.2    65  ASN65       0.2629
     61  OD1        0.8170   23.6580   40.6150 O.2    65  ASN65      -0.2716
     62  ND2        0.5700   21.4600   41.0210 N.am   65  ASN65      -0.0877
     63  N          9.3900   18.6210   39.2140 N.3   143  ALA143     -0.1231
     64  CA        10.5070   19.0190   40.0700 C.3   143  ALA143      0.1694
     65  C         10.9270   18.0010   41.1260 C.2   143  ALA143      0.2591
     66  O         11.4990   18.3750   42.1480 O.2   143  ALA143     -0.2718
     67  CB        10.1860   20.3520   40.7470 C.3   143  ALA143      0.0304
     68  N         10.6790   16.7210   40.8750 N.am  144  LYS144     -0.1980
     69  CA        11.0250   15.6870   41.8460 C.3   144  LYS144      0.1596
     70  C         12.4840   15.6480   42.3140 C.2   144  LYS144      0.2287
     71  O         12.7580   15.1950   43.4240 O.2   144  LYS144     -0.2864
     72  CB        10.6290   14.3120   41.3150 C.3   144  LYS144      0.0298
     73  CG        11.3490   13.8960   40.0600 C.3   144  LYS144      0.0038
     74  CD        10.8920   12.5170   39.6240 C.3   144  LYS144      0.0206
     75  CE        11.1880   11.4760   40.6960 C.3   144  LYS144      0.1093
     76  NZ        10.7580   10.1080   40.2780 N.3   144  LYS144     -0.1314
     77  N         14.9150   19.2650   45.0890 N.3   147  HIS147     -0.1241
     78  CA        15.4500   19.3730   46.4460 C.3   147  HIS147      0.1621
     79  C         16.8950   18.8610   46.4980 C.2   147  HIS147      0.2264
     80  O         17.6650   19.2590   47.3740 O.2   147  HIS147     -0.2867
     81  CB        14.5820   18.5700   47.4280 C.3   147  HIS147      0.0745
     82  CG        13.2270   19.1640   47.6770 C.ar  147  HIS147      0.0817
     83  ND1       12.0760   18.4040   47.7100 N.ar  147  HIS147     -0.2268
     84  CD2       12.8420   20.4370   47.9360 C.ar  147  HIS147      0.1154
     85  CE1       11.0430   19.1820   47.9760 C.ar  147  HIS147      0.1986
     86  NE2       11.4800   20.4210   48.1180 N.ar  147  HIS147     -0.2212
     87  N          5.0780   14.2570   36.0200 N.3   164  GLY164     -0.1210
     88  CA         4.0780   14.9940   36.7580 C.3   164  GLY164      0.1956
     89  C          4.2850   16.4810   36.5690 C.2   164  GLY164      0.2612
     90  O          5.4080   16.9380   36.3600 O.2   164  GLY164     -0.2717
     91  N          3.1990   17.2410   36.6190 N.am  165  ILE165     -0.1965
     92  CA         3.2930   18.6830   36.4750 C.3   165  ILE165      0.1727
     93  C          3.0910   19.2400   37.8720 C.2   165  ILE165      0.2616
     94  O          1.9690   19.5590   38.2590 O.2   165  ILE165     -0.2715
     95  CB         2.2070   19.2190   35.5130 C.3   165  ILE165      0.0290
     96  CG1        2.5370   18.7880   34.0780 C.3   165  ILE165      0.0022
     97  CG2        2.1170   20.7290   35.6070 C.3   165  ILE165      0.0023
     98  CD1        1.5120   19.1940   33.0480 C.3   165  ILE165      0.0001
     99  N          4.1790   19.3390   38.6310 N.am  166  ASN166     -0.1958
    100  CA         4.1040   19.8350   40.0000 C.3   166  ASN166      0.1819
    101  C          4.8970   21.1150   40.2480 C.2   166  ASN166      0.2621
    102  O          5.1080   21.5140   41.3970 O.2   166  ASN166     -0.2715
    103  CB         4.5840   18.7530   40.9690 C.3   166  ASN166      0.1195
    104  CG         5.9470   18.2020   40.5960 C.2   166  ASN166      0.2630
    105  OD1        6.8730   18.9540   40.3250 O.2   166  ASN166     -0.2716
    106  ND2        6.0750   16.8800   40.5900 N.am  166  ASN166     -0.0877
    107  N          5.3200   21.7740   39.1810 N.am  167  HIS167     -0.1973
    108  CA         6.1030   22.9850   39.3510 C.3   167  HIS167      0.1656
    109  C          6.2900   23.6700   38.0040 C.2   167  HIS167      0.2291
    110  O          6.0610   23.0740   36.9520 O.2   167  HIS167     -0.2864
    111  CB         7.4630   22.6130   39.9690 C.3   167  HIS167      0.0771
    112  CG         8.2700   23.7850   40.4360 C.ar  167  HIS167      0.0820
    113  ND1        7.7360   24.8040   41.1970 N.ar  167  HIS167     -0.2267
    114  CD2        9.5840   24.0800   40.2840 C.ar  167  HIS167      0.1154
    115  CE1        8.6850   25.6750   41.4920 C.ar  167  HIS167      0.1986
    116  NE2        9.8160   25.2590   40.9500 N.ar  167  HIS167     -0.2212
    117  N         13.1920   29.3110   44.5170 N.3   189  TRP189     -0.1241
    118  CA        13.4330   28.7290   45.8320 C.3   189  TRP189      0.1605
    119  C         14.6060   29.4480   46.4940 C.2   189  TRP189      0.2264
    120  O         15.4170   28.8270   47.1700 O.2   189  TRP189     -0.2867
    121  CB        13.7490   27.2310   45.6950 C.3   189  TRP189      0.0550
    122  CG        12.5940   26.3990   45.2320 C.ar  189  TRP189      0.0003
    123  CD1       11.4020   26.8540   44.7520 C.ar  189  TRP189      0.0946
    124  CD2       12.5120   24.9650   45.2130 C.ar  189  TRP189      0.0152
    125  NE1       10.5820   25.8010   44.4370 N.ar  189  TRP189     -0.2442
    126  CE2       11.2350   24.6280   44.7090 C.ar  189  TRP189      0.0810
    127  CE3       13.3920   23.9340   45.5690 C.ar  189  TRP189      0.0012
    128  CZ2       10.8110   23.2960   44.5520 C.ar  189  TRP189      0.0191
    129  CZ3       12.9690   22.6060   45.4130 C.ar  189  TRP189      0.0001
    130  CH2       11.6890   22.3040   44.9090 C.ar  189  TRP189      0.0015
@<TRIPOS>BOND
     1    98    96    1
     2    96    95    1
     3    95    97    1
     4    95    92    1
     5    87    88    1
     6    90    89    2
     7    92    91    1
     8    92    93    1
     9    89    91   am
    10    89    88    1
    11   110   109    2
    12    93    94    2
    13    93    99   am
    14   109   108    1
    15    99   100    1
    16   107   108    1
    17   107   101   am
    18    63    64    1
    19    36    35    2
    20   108   111    1
    21    74    73    1
    22    74    75    1
    23   111   112    1
    24   100   101    1
    25   100   103    1
    26    35    34    1
    27    73    72    1
    28    64    67    1
    29    64    65    1
    30   101   102    2
    31    76    75    1
    32   114   112   ar
    33   114   116   ar
    34   105   104    2
    35   112   113   ar
    36   106   104   am
    37   104   103    1
    38    61    60    2
    39    68    65   am
    40    68    69    1
    41   116   115   ar
    42    62    60   am
    43    65    66    2
    44    60    59    1
    45   113   115   ar
    46    34    33    1
    47    72    69    1
    48    57    58    2
    49    57    56    1
    50    69    70    1
    51    59    56    1
    52    70    71    2
    53    56    55    1
    54    55    45   am
    55    32    31    2
    56     8     7    2
    57   125   126   ar
    58   125   123   ar
    59    52    50   ar
    60    52    53   ar
    61   117   118    1
    62   128   126   ar
    63   128   130   ar
    64   126   124   ar
    65    50    48   ar
    66   123   122   ar
    67    31    30    1
    68    46    45    2
    69   130   129   ar
    70    45    44    1
    71    77    78    1
    72   124   122   ar
    73   124   127   ar
    74   122   121    1
    75     7     9   am
    76     7     6    1
    77    54    53    1
    78   129   127   ar
    79    53    51   ar
    80   121   118    1
    81   118   119    1
    82    30    29    1
    83    48    47    1
    84    48    49   ar
    85    47    44    1
    86     5     6    1
    87     5     2    1
    88    44    43    1
    89    78    79    1
    90    78    81    1
    91   119   120    2
    92    79    80    2
    93    43    39   am
    94    51    49   ar
    95    37    38    1
    96    39    38    1
    97    39    40    2
    98    29    25   am
    99     1     2    1
   100    38    41    1
   101    26    25    2
   102     2     3    1
   103    81    82    1
   104    82    83   ar
   105    82    84   ar
   106    83    85   ar
   107    25    24    1
   108    84    86   ar
   109    85    86   ar
   110    28    42    1
   111    28    27    1
   112     3     4    2
   113     3    10   am
   114    41    42    1
   115    24    27    1
   116    24    23    1
   117    10    11    1
   118    13    12    2
   119    23    16   am
   120    12    11    1
   121    12    14   am
   122    16    15    1
   123    16    17    2
   124    14    15    1
   125    15    18    1
   126    22    20   am
   127    21    20    2
   128    20    19    1
   129    18    19    1
