@<TRIPOS>MOLECULE
tmp/2b1pA00.pdb
 150 139 0 0 0
SMALL
GASTEIGER

@<TRIPOS>ATOM
      1  N         52.8260    7.4300   35.3310 N.3    25  ILE25      -0.1231
      2  CA        52.3810    6.9690   34.0220 C.3    25  ILE25       0.1692
      3  C         52.4570    8.0900   32.9940 C.2    25  ILE25       0.2592
      4  O         52.3030    9.2730   33.3280 O.2    25  ILE25      -0.2718
      5  CB        50.9780    6.3230   34.0730 C.3    25  ILE25       0.0266
      6  CG1       49.9520    7.2630   34.6730 C.3    25  ILE25       0.0019
      7  CG2       51.0140    5.0390   34.8970 C.3    25  ILE25       0.0020
      8  CD1       48.5630    6.6740   34.7360 C.3    25  ILE25       0.0001
      9  N         52.7650    7.6910   31.7600 N.am   26  GLY26      -0.1957
     10  CA        52.8080    8.5830   30.6040 C.3    26  GLY26       0.1869
     11  C         53.8980    9.6360   30.6450 C.2    26  GLY26       0.2309
     12  O         54.9960    9.4000   31.1710 O.2    26  GLY26      -0.2863
     13  N         50.6000   12.6740   36.3970 N.3    31  VAL31      -0.1245
     14  CA        49.6070   11.6360   36.6660 C.3    31  VAL31       0.1561
     15  C         50.2650   10.3750   37.2200 C.2    31  VAL31       0.2260
     16  O         51.3820   10.0290   36.8080 O.2    31  VAL31      -0.2867
     17  CB        48.7830   11.2970   35.3920 C.3    31  VAL31       0.0252
     18  CG1       47.7610   10.2560   35.6990 C.3    31  VAL31       0.0019
     19  CG2       48.0960   12.5440   34.8540 C.3    31  VAL31       0.0019
     20  N         43.7210    6.1790   38.1730 N.3    44  ALA44      -0.1245
     21  CA        44.7250    7.1980   37.8160 C.3    44  ALA44       0.1562
     22  C         44.4800    8.4420   38.6600 C.2    44  ALA44       0.2260
     23  O         43.3430    8.8550   38.8570 O.2    44  ALA44      -0.2867
     24  CB        44.6240    7.5430   36.3410 C.3    44  ALA44       0.0290
     25  N         45.5100   12.4530   38.9760 N.3    46  LYS46      -0.1245
     26  CA        46.1520   13.6450   38.4110 C.3    46  LYS46       0.1561
     27  C         46.3760   14.7390   39.4620 C.2    46  LYS46       0.2260
     28  O         45.4650   15.1410   40.1660 O.2    46  LYS46      -0.2867
     29  CB        45.3430   14.2020   37.2460 C.3    46  LYS46       0.0271
     30  CG        46.0000   15.3630   36.5180 C.3    46  LYS46       0.0035
     31  CD        45.4510   15.4800   35.1360 C.3    46  LYS46       0.0206
     32  CE        45.9740   16.6690   34.4300 C.3    46  LYS46       0.1093
     33  NZ        45.3470   16.7060   33.0940 N.3    46  LYS46      -0.1314
     34  N         33.3960   18.1320   34.2740 N.3    68  MET68      -0.1245
     35  CA        33.5260   16.7210   34.6780 C.3    68  MET68       0.1570
     36  C         32.3870   16.2890   35.5850 C.2    68  MET68       0.2261
     37  O         31.9690   15.1320   35.5450 O.2    68  MET68      -0.2867
     38  CB        34.8520   16.4370   35.3860 C.3    68  MET68       0.0387
     39  CG        36.0300   16.2580   34.4540 C.3    68  MET68       0.0595
     40  SD        37.5670   16.2910   35.3840 S.3    68  MET68      -0.1393
     41  CE        38.7620   16.9060   34.2180 C.3    68  MET68       0.0692
     42  N         35.6090   11.1650   30.2540 N.3    77  ILE77      -0.1245
     43  CA        36.1070   11.1040   31.6130 C.3    77  ILE77       0.1561
     44  C         34.9750   11.3160   32.6060 C.2    77  ILE77       0.2260
     45  O         34.1470   12.2140   32.4500 O.2    77  ILE77      -0.2867
     46  CB        37.1590   12.2100   31.8630 C.3    77  ILE77       0.0252
     47  CG1       37.6760   12.1700   33.3080 C.3    77  ILE77       0.0019
     48  CG2       36.6030   13.5950   31.5190 C.3    77  ILE77       0.0019
     49  CD1       38.6970   13.2080   33.6140 C.3    77  ILE77       0.0001
     50  N         34.9640   11.4520   36.8820 N.3    79  LEU79      -0.1245
     51  CA        35.7720   11.4860   38.0650 C.3    79  LEU79       0.1561
     52  C         35.2200   10.5780   39.1460 C.2    79  LEU79       0.2260
     53  O         34.0340   10.6240   39.4200 O.2    79  LEU79      -0.2867
     54  CB        35.8060   12.9090   38.5970 C.3    79  LEU79       0.0270
     55  CG        36.6660   13.8920   37.8190 C.3    79  LEU79       0.0019
     56  CD1       36.8040   15.1890   38.6110 C.3    79  LEU79       0.0001
     57  CD2       38.0100   13.2940   37.5650 C.3    79  LEU79       0.0001
     58  N         42.8200   14.6890   41.2080 N.3    97  LEU97      -0.1231
     59  CA        41.6160   14.2360   40.4950 C.3    97  LEU97       0.1693
     60  C         41.8440   12.7580   40.2810 C.2    97  LEU97       0.2592
     61  O         42.9740   12.3430   40.0370 O.2    97  LEU97      -0.2718
     62  CB        41.4640   14.9650   39.1570 C.3    97  LEU97       0.0284
     63  CG        41.3690   16.4990   39.1270 C.3    97  LEU97       0.0019
     64  CD1       41.4920   16.9790   37.6830 C.3    97  LEU97       0.0001
     65  CD2       40.0760   17.0560   39.7090 C.3    97  LEU97       0.0001
     66  N         40.7980   11.9450   40.4680 N.am   98  VAL98      -0.1966
     67  CA        40.9480   10.5050   40.4080 C.3    98  VAL98       0.1727
     68  C         39.9610    9.9450   39.3960 C.2    98  VAL98       0.2616
     69  O         38.7770   10.3030   39.3980 O.2    98  VAL98      -0.2715
     70  CB        40.7250    9.8160   41.7950 C.3    98  VAL98       0.0290
     71  CG1       41.0610    8.3190   41.7200 C.3    98  VAL98       0.0023
     72  CG2       41.5580   10.4810   42.8820 C.3    98  VAL98       0.0023
     73  N         40.4520    9.0730   38.5260 N.am   99  MET99      -0.1963
     74  CA        39.5840    8.3890   37.5730 C.3    99  MET99       0.1736
     75  C         40.0540    6.9630   37.2950 C.2    99  MET99       0.2616
     76  O         41.0740    6.5240   37.8160 O.2    99  MET99      -0.2715
     77  CB        39.4830    9.2210   36.2870 C.3    99  MET99       0.0427
     78  CG        40.6300    9.0840   35.3230 C.3    99  MET99       0.0599
     79  SD        40.2030    9.7100   33.6870 S.3    99  MET99      -0.1393
     80  CE        39.6100    8.2660   32.8890 C.3    99  MET99       0.0692
     81  N         39.3030    6.2340   36.4780 N.am  100  GLU100     -0.1963
     82  CA        39.6760    4.8720   36.0690 C.3   100  GLU100      0.1733
     83  C         41.0740    4.8200   35.4540 C.2   100  GLU100      0.2616
     84  O         41.4580    5.6980   34.6910 O.2   100  GLU100     -0.2715
     85  CB        38.6200    4.3530   35.0810 C.3   100  GLU100      0.0429
     86  CG        38.8490    2.9840   34.5380 C.3   100  GLU100      0.1163
     87  CD        37.5710    2.3760   33.9640 C.2   100  GLU100      0.3649
     88  OE1       36.5510    3.0880   33.8070 O.co2 100  GLU100     -0.2457
     89  OE2       37.5870    1.1630   33.6780 O.co2 100  GLU100     -0.2457
     90  N         41.8320    3.7930   35.8080 N.am  101  LEU101     -0.1963
     91  CA        43.1240    3.5360   35.1880 C.3   101  LEU101      0.1728
     92  C         42.9190    2.7270   33.9170 C.2   101  LEU101      0.2616
     93  O         42.4350    1.6110   33.9640 O.2   101  LEU101     -0.2715
     94  CB        43.9950    2.7270   36.1270 C.3   101  LEU101      0.0311
     95  CG        45.4370    2.6290   35.6290 C.3   101  LEU101      0.0022
     96  CD1       46.1000    4.0060   35.6760 C.3   101  LEU101      0.0001
     97  CD2       46.2030    1.6060   36.4410 C.3   101  LEU101      0.0001
     98  N         43.2950    3.3000   32.7820 N.am  102  MET102     -0.1963
     99  CA        43.1530    2.6370   31.4750 C.3   102  MET102      0.1736
    100  C         44.4400    1.8750   31.1570 C.2   102  MET102      0.2616
    101  O         45.2460    1.6290   32.0680 O.2   102  MET102     -0.2715
    102  CB        42.8500    3.7010   30.4180 C.3   102  MET102      0.0427
    103  CG        41.7350    4.6360   30.8140 C.3   102  MET102      0.0599
    104  SD        40.2190    3.7250   30.7560 S.3   102  MET102     -0.1393
    105  CE        39.8920    3.9080   29.0010 C.3   102  MET102      0.0692
    106  N         44.6720    1.5080   29.8920 N.am  103  ASP103     -0.1957
    107  CA        45.8510    0.6940   29.5660 C.3   103  ASP103      0.1840
    108  C         46.9030    1.3920   28.7270 C.2   103  ASP103      0.2622
    109  O         48.0290    0.9260   28.6710 O.2   103  ASP103     -0.2715
    110  CB        45.4030   -0.6160   28.9170 C.3   103  ASP103      0.1450
    111  CG        44.6720   -1.5230   29.9040 C.2   103  ASP103      0.3671
    112  OD1       45.2650   -1.8980   30.9330 O.co2 103  ASP103     -0.2456
    113  OD2       43.4820   -1.8550   29.6760 O.co2 103  ASP103     -0.2456
    114  N         46.5440    2.5030   28.0810 N.am  104  ALA104     -0.1963
    115  CA        47.3950    3.1950   27.1150 C.3   104  ALA104      0.1728
    116  C         46.7270    4.4900   26.6700 C.2   104  ALA104      0.2616
    117  O         45.5160    4.6310   26.7560 O.2   104  ALA104     -0.2715
    118  CB        47.6360    2.2990   25.8720 C.3   104  ALA104      0.0334
    119  N         47.5110    5.4320   26.1710 N.am  105  ASN105     -0.1972
    120  CA        46.9560    6.5830   25.4760 C.3   105  ASN105      0.1688
    121  C         46.9060    6.3630   23.9780 C.2   105  ASN105      0.2292
    122  O         47.5630    5.4520   23.4430 O.2   105  ASN105     -0.2864
    123  CB        47.6750    7.8750   25.8460 C.3   105  ASN105      0.1181
    124  CG        49.0680    7.9170   25.3350 C.2   105  ASN105      0.2629
    125  OD1       49.2930    8.1090   24.1410 O.2   105  ASN105     -0.2716
    126  ND2       50.0200    7.7190   26.2190 N.am  105  ASN105     -0.0877
    127  N         49.9330    5.8520   21.5710 N.3   108  GLN108     -0.1245
    128  CA        50.5400    4.5390   21.5900 C.3   108  GLN108      0.1566
    129  C         49.7690    3.6270   20.6610 C.2   108  GLN108      0.2260
    130  O         50.3440    2.8500   19.9360 O.2   108  GLN108     -0.2867
    131  CB        50.5620    3.9860   23.0240 C.3   108  GLN108      0.0367
    132  CG        51.4970    4.7760   23.9680 C.3   108  GLN108      0.0905
    133  CD        51.0640    4.7550   25.4540 C.2   108  GLN108      0.2608
    134  OE1       50.2900    3.9040   25.8940 O.2   108  GLN108     -0.2717
    135  NE2       51.5590    5.7250   26.2170 N.am  108  GLN108     -0.0878
    136  N         42.5030    8.1060   26.0590 N.3   149  VAL149     -0.1245
    137  CA        43.0760    6.9100   26.6550 C.3   149  VAL149      0.1561
    138  C         42.2210    5.7080   26.2890 C.2   149  VAL149      0.2260
    139  O         41.0240    5.8410   26.0180 O.2   149  VAL149     -0.2867
    140  CB        43.2370    7.0330   28.1760 C.3   149  VAL149      0.0252
    141  CG1       44.4010    7.9050   28.5070 C.3   149  VAL149      0.0019
    142  CG2       41.9830    7.6050   28.8400 C.3   149  VAL149      0.0019
    143  N         39.5630   12.7870   27.6500 N.3   159  LEU159     -0.1245
    144  CA        39.9160   13.2950   28.9880 C.3   159  LEU159      0.1561
    145  C         39.7690   14.7920   29.2260 C.2   159  LEU159      0.2260
    146  O         39.8260   15.2370   30.3860 O.2   159  LEU159     -0.2867
    147  CB        41.3790   12.9410   29.2930 C.3   159  LEU159      0.0270
    148  CG        41.7600   11.4690   29.3300 C.3   159  LEU159      0.0019
    149  CD1       43.2090   11.3850   29.7340 C.3   159  LEU159      0.0001
    150  CD2       40.9270   10.6770   30.2660 C.3   159  LEU159      0.0001
@<TRIPOS>BOND
     1   130   129    2
     2   129   128    1
     3   127   128    1
     4   128   131    1
     5   131   132    1
     6   122   121    2
     7   132   133    1
     8   121   120    1
     9   125   124    2
    10   124   123    1
    11   124   126   am
    12   133   134    2
    13   133   135   am
    14   120   123    1
    15   120   119    1
    16   118   115    1
    17   139   138    2
    18   136   137    1
    19   119   116   am
    20   138   137    1
    21   137   140    1
    22   116   117    2
    23   116   115    1
    24   115   114    1
    25   143   144    1
    26   114   108   am
    27   140   141    1
    28   140   142    1
    29   109   108    2
    30   108   107    1
    31   110   107    1
    32   110   111    1
    33   144   145    1
    34   144   147    1
    35   105   104    1
    36   145   146    2
    37   147   148    1
    38   148   149    1
    39   148   150    1
    40   107   106    1
    41   113   111   ar
    42   106   100   am
    43   111   112   ar
    44    42    43    1
    45   102   103    1
    46   102    99    1
    47    10    11    1
    48    10     9    1
    49    11    12    2
    50   104   103    1
    51   100    99    1
    52   100   101    2
    53    99    98    1
    54    48    46    1
    55    43    46    1
    56    43    44    1
    57     9     3   am
    58    46    47    1
    59    45    44    2
    60    98    92   am
    61    80    79    1
    62     3     4    2
    63     3     2    1
    64    33    32    1
    65    47    49    1
    66    89    87   ar
    67    79    78    1
    68    88    87   ar
    69    92    93    2
    70    92    91    1
    71    87    86    1
    72     2     5    1
    73     2     1    1
    74     5     6    1
    75     5     7    1
    76    41    40    1
    77    34    35    1
    78    32    31    1
    79    39    40    1
    80    39    38    1
    81    86    85    1
    82     6     8    1
    83    35    38    1
    84    35    36    1
    85    84    83    2
    86    19    17    1
    87    85    82    1
    88    31    30    1
    89    91    90    1
    90    91    94    1
    91    78    77    1
    92    17    18    1
    93    17    14    1
    94    83    90   am
    95    83    82    1
    96    37    36    2
    97    95    96    1
    98    95    94    1
    99    95    97    1
   100    82    81    1
   101    77    74    1
   102    24    21    1
   103    13    14    1
   104    81    75   am
   105    30    29    1
   106    14    15    1
   107    16    15    2
   108    50    51    1
   109    29    26    1
   110    75    74    1
   111    75    76    2
   112    57    55    1
   113    74    73    1
   114    64    63    1
   115    21    20    1
   116    21    22    1
   117    55    54    1
   118    55    56    1
   119    51    54    1
   120    51    52    1
   121    26    25    1
   122    26    27    1
   123    73    68   am
   124    22    23    2
   125    63    62    1
   126    63    65    1
   127    52    53    2
   128    62    59    1
   129    68    69    2
   130    68    67    1
   131    27    28    2
   132    61    60    2
   133    60    66   am
   134    60    59    1
   135    67    66    1
   136    67    70    1
   137    59    58    1
   138    71    70    1
   139    70    72    1
