@<TRIPOS>MOLECULE
tmp/2b1qA00.pdb
 120 110 0 0 0
SMALL
GASTEIGER

@<TRIPOS>ATOM
      1  N         47.6010    5.9070  102.7520 N.3    11  ASP11      -0.1225
      2  CA        47.6600    4.5910  103.3860 C.3    11  ASP11       0.1805
      3  C         49.0910    4.1400  103.7140 C.2    11  ASP11       0.2597
      4  O         49.9570    4.0930  102.8370 O.2    11  ASP11      -0.2718
      5  CB        46.9880    3.5610  102.4730 C.3    11  ASP11       0.1424
      6  CG        45.5360    3.9140  102.1560 C.2    11  ASP11       0.3668
      7  OD1       44.6450    3.6130  102.9810 O.co2  11  ASP11      -0.2456
      8  OD2       45.2850    4.4980  101.0800 O.co2  11  ASP11      -0.2456
      9  N         49.3070    3.8080  104.9870 N.am   12  ASN12      -0.1974
     10  CA        50.5850    3.3440  105.5230 C.3    12  ASN12       0.1688
     11  C         51.6350    4.4330  105.6680 C.2    12  ASN12       0.2292
     12  O         52.7240    4.2070  106.1900 O.2    12  ASN12      -0.2864
     13  CB        51.1210    2.1890  104.6870 C.3    12  ASN12       0.1181
     14  CG        50.1090    1.0770  104.5560 C.2    12  ASN12       0.2629
     15  OD1       49.5440    0.6200  105.5530 O.2    12  ASN12      -0.2716
     16  ND2       49.8620    0.6410  103.3290 N.am   12  ASN12      -0.0877
     17  N         47.4320    6.4000   95.5040 N.3    42  GLY42      -0.1210
     18  CA        47.0770    5.4960   94.4260 C.3    42  GLY42       0.1956
     19  C         45.5650    5.4260   94.3240 C.2    42  GLY42       0.2611
     20  O         45.0170    4.9370   93.3350 O.2    42  GLY42      -0.2717
     21  N         44.8940    5.9260   95.3580 N.am   43  ARG43      -0.1979
     22  CA        43.4450    5.9350   95.4090 C.3    43  ARG43       0.1597
     23  C         42.8700    6.9480   94.4280 C.2    43  ARG43       0.2287
     24  O         43.5340    7.9160   94.0420 O.2    43  ARG43      -0.2864
     25  CB        42.9630    6.3000   96.8160 C.3    43  ARG43       0.0334
     26  CG        43.2530    5.2890   97.8980 C.3    43  ARG43       0.0492
     27  CD        42.5740    5.7180   99.1890 C.3    43  ARG43       0.2205
     28  NE        42.7770    4.7660  100.2880 N.pl3  43  ARG43      -0.0865
     29  CZ        41.7900    4.1980  100.9740 C.cat  43  ARG43       0.5346
     30  NH1       40.5340    4.4710  100.6530 N.pl3  43  ARG43       0.1354
     31  NH2       42.0580    3.3560  101.9640 N.pl3  43  ARG43       0.1354
     32  N         47.7490    7.7010   91.5200 N.3    67  VAL67      -0.1245
     33  CA        49.1880    7.7330   91.2720 C.3    67  VAL67       0.1561
     34  C         49.5850    8.9190   90.3970 C.2    67  VAL67       0.2260
     35  O         50.4660    8.8200   89.5350 O.2    67  VAL67      -0.2867
     36  CB        49.6720    6.4200   90.6080 C.3    67  VAL67       0.0252
     37  CG1       51.1840    6.2620   90.8040 C.3    67  VAL67       0.0019
     38  CG2       48.9380    5.2320   91.2120 C.3    67  VAL67       0.0019
     39  N         42.0510   -5.0170   87.8830 N.3   107  GLN107     -0.1245
     40  CA        41.5680   -4.5330   89.1680 C.3   107  GLN107      0.1566
     41  C         40.1570   -4.0660   88.8350 C.2   107  GLN107      0.2260
     42  O         39.8080   -3.9600   87.6560 O.2   107  GLN107     -0.2867
     43  CB        42.4120   -3.3550   89.6670 C.3   107  GLN107      0.0367
     44  CG        43.7430   -3.7670   90.2890 C.3   107  GLN107      0.0905
     45  CD        44.4850   -2.5960   90.9160 C.2   107  GLN107      0.2608
     46  OE1       43.8710   -1.6290   91.3630 O.2   107  GLN107     -0.2717
     47  NE2       45.8110   -2.6890   90.9670 N.am  107  GLN107     -0.0878
     48  N         38.9120    1.3380   89.8230 N.3   111  GLU111     -0.1245
     49  CA        40.3300    1.6270   90.0360 C.3   111  GLU111      0.1567
     50  C         40.9480    2.1280   88.7360 C.2   111  GLU111      0.2260
     51  O         42.1230    2.5010   88.6960 O.2   111  GLU111     -0.2867
     52  CB        41.0900    0.3760   90.4820 C.3   111  GLU111      0.0388
     53  CG        40.7060   -0.1640   91.8430 C.3   111  GLU111      0.1160
     54  CD        40.6690    0.9110   92.9090 C.2   111  GLU111      0.3649
     55  OE1       41.5020    1.8410   92.8630 O.co2 111  GLU111     -0.2457
     56  OE2       39.8060    0.8160   93.8030 O.co2 111  GLU111     -0.2457
     57  N         44.9790    5.4180   83.5530 N.3   116  LYS116     -0.1245
     58  CA        45.4310    4.4070   84.5040 C.3   116  LYS116      0.1561
     59  C         44.7900    3.0560   84.2260 C.2   116  LYS116      0.2260
     60  O         43.5690    2.9270   84.2240 O.2   116  LYS116     -0.2867
     61  CB        45.1050    4.8590   85.9330 C.3   116  LYS116      0.0271
     62  CG        45.4890    3.8840   87.0380 C.3   116  LYS116      0.0035
     63  CD        45.1720    4.4940   88.3960 C.3   116  LYS116      0.0206
     64  CE        45.4980    3.5600   89.5430 C.3   116  LYS116      0.1093
     65  NZ        44.5620    2.4130   89.6470 N.3   116  LYS116     -0.1314
     66  N         46.2610   -6.8950   89.1830 N.3   120  HIS120     -0.1241
     67  CA        46.7750   -7.5420   90.3780 C.3   120  HIS120      0.1621
     68  C         47.6080   -8.7110   89.8760 C.2   120  HIS120      0.2264
     69  O         47.1710   -9.4600   88.9980 O.2   120  HIS120     -0.2867
     70  CB        45.6280   -8.0650   91.2440 C.3   120  HIS120      0.0745
     71  CG        44.9570   -7.0070   92.0630 C.ar  120  HIS120      0.0817
     72  ND1       43.6280   -7.0730   92.4180 N.ar  120  HIS120     -0.2268
     73  CD2       45.4410   -5.8710   92.6210 C.ar  120  HIS120      0.1154
     74  CE1       43.3200   -6.0230   93.1610 C.ar  120  HIS120      0.1986
     75  NE2       44.4020   -5.2790   93.2990 N.ar  120  HIS120     -0.2212
     76  N         53.9020   -2.2820   93.0140 N.3   149  SER149     -0.1202
     77  CA        54.0400   -2.0510   94.4460 C.3   149  SER149      0.2020
     78  C         53.3470   -3.0930   95.3090 C.2   149  SER149      0.2619
     79  O         52.3840   -3.7360   94.8840 O.2   149  SER149     -0.2717
     80  CB        53.5030   -0.6610   94.7930 C.3   149  SER149      0.2103
     81  OG        52.1490   -0.5350   94.4110 O.3   149  SER149     -0.2182
     82  N         53.8490   -3.2480   96.5310 N.am  150  SER150     -0.1951
     83  CA        53.3030   -4.2010   97.4870 C.3   150  SER150      0.1924
     84  C         53.3690   -5.6300   96.9610 C.2   150  SER150      0.2314
     85  O         52.6460   -6.5090   97.4310 O.2   150  SER150     -0.2863
     86  CB        51.8590   -3.8300   97.8130 C.3   150  SER150      0.2116
     87  OG        51.7910   -2.4910   98.2720 O.3   150  SER150     -0.2180
     88  N         52.1710   -6.8170   94.4210 N.3   152  LYS152     -0.1231
     89  CA        50.9830   -7.2760   93.7020 C.3   152  LYS152      0.1693
     90  C         50.2550   -6.2600   92.8230 C.2   152  LYS152      0.2592
     91  O         49.5900   -6.6430   91.8570 O.2   152  LYS152     -0.2718
     92  CB        49.9840   -7.8860   94.6920 C.3   152  LYS152      0.0285
     93  CG        49.3210   -6.8850   95.6200 C.3   152  LYS152      0.0035
     94  CD        48.2670   -7.5630   96.4910 C.3   152  LYS152      0.0206
     95  CE        46.9790   -6.7470   96.5570 C.3   152  LYS152      0.1093
     96  NZ        47.1980   -5.3780   97.1020 N.3   152  LYS152     -0.1314
     97  N         50.3740   -4.9740   93.1400 N.am  153  ASP153     -0.1974
     98  CA        49.6820   -3.9490   92.3620 C.3   153  ASP153      0.1709
     99  C         50.4610   -3.4520   91.1490 C.2   153  ASP153      0.2293
    100  O         51.6100   -3.0210   91.2630 O.2   153  ASP153     -0.2864
    101  CB        49.3110   -2.7690   93.2620 C.3   153  ASP153      0.1436
    102  CG        48.3670   -3.1690   94.3800 C.2   153  ASP153      0.3671
    103  OD1       47.5760   -4.1190   94.1830 O.co2 153  ASP153     -0.2456
    104  OD2       48.4040   -2.5280   95.4520 O.co2 153  ASP153     -0.2456
    105  N         50.2330   -0.8140   87.8830 N.3   155  ASP155     -0.1239
    106  CA        49.5660    0.3230   87.2560 C.3   155  ASP155      0.1674
    107  C         50.2820    0.7120   85.9710 C.2   155  ASP155      0.2266
    108  O         51.5030    0.8590   85.9580 O.2   155  ASP155     -0.2867
    109  CB        49.5740    1.5500   88.1760 C.3   155  ASP155      0.1410
    110  CG        48.9800    1.2710   89.5350 C.2   155  ASP155      0.3668
    111  OD1       47.8240    0.8020   89.6000 O.co2 155  ASP155     -0.2456
    112  OD2       49.6730    1.5320   90.5420 O.co2 155  ASP155     -0.2456
    113  N         54.7830    2.6590   94.3600 N.3   189  ASN189     -0.1240
    114  CA        54.0860    3.7240   93.6550 C.3   189  ASN189      0.1653
    115  C         54.5120    5.1060   94.1450 C.2   189  ASN189      0.2266
    116  O         53.9400    6.1200   93.7460 O.2   189  ASN189     -0.2867
    117  CB        52.5560    3.5420   93.7300 C.3   189  ASN189      0.1155
    118  CG        51.9540    3.9880   95.0520 C.2   189  ASN189      0.2627
    119  OD1       52.6380    4.5150   95.9250 O.2   189  ASN189     -0.2716
    120  ND2       50.6520    3.7820   95.1930 N.am  189  ASN189     -0.0877
@<TRIPOS>BOND
     1    57    58    1
     2    60    59    2
     3    59    58    1
     4    58    61    1
     5    61    62    1
     6   108   107    2
     7   107   106    1
     8    62    63    1
     9   106   105    1
    10   106   109    1
    11    42    41    2
    12    39    40    1
    13   109   110    1
    14    63    64    1
    15    51    50    2
    16    50    49    1
    17    41    40    1
    18    69    68    2
    19    40    43    1
    20    66    67    1
    21    35    34    2
    22   110   111   ar
    23   110   112   ar
    24    64    65    1
    25    43    44    1
    26    48    49    1
    27    68    67    1
    28    49    52    1
    29    44    45    1
    30    67    70    1
    31    34    33    1
    32    52    53    1
    33    36    37    1
    34    36    38    1
    35    36    33    1
    36    45    47   am
    37    45    46    2
    38    99   100    2
    39    99    98    1
    40    70    71    1
    41    33    32    1
    42    53    54    1
    43    91    90    2
    44    71    72   ar
    45    71    73   ar
    46    98    97    1
    47    98   101    1
    48    72    74   ar
    49    73    75   ar
    50    90    97   am
    51    90    89    1
    52    55    54   ar
    53    54    56   ar
    54    76    77    1
    55    74    75   ar
    56   101   102    1
    57    20    19    2
    58   114   117    1
    59   114   115    1
    60   114   113    1
    61    89    88    1
    62    89    92    1
    63   117   118    1
    64   116   115    2
    65    24    23    2
    66   103   102   ar
    67    19    18    1
    68    19    21   am
    69   102   104   ar
    70    81    80    1
    71    18    17    1
    72    23    22    1
    73    77    80    1
    74    77    78    1
    75    92    93    1
    76    79    78    2
    77   118   120   am
    78   118   119    2
    79    78    82   am
    80    21    22    1
    81    22    25    1
    82    93    94    1
    83    94    95    1
    84    82    83    1
    85    95    96    1
    86    25    26    1
    87    84    85    2
    88    84    83    1
    89    83    86    1
    90    86    87    1
    91    26    27    1
    92    27    28    1
    93    28    29    2
    94    30    29    1
    95    29    31    1
    96     8     6   ar
    97     6     5    1
    98     6     7   ar
    99     5     2    1
   100     1     2    1
   101     4     3    2
   102    16    14   am
   103     2     3    1
   104     3     9   am
   105    14    13    1
   106    14    15    2
   107    13    10    1
   108     9    10    1
   109    10    11    1
   110    11    12    2
