@<TRIPOS>MOLECULE
tmp/2b1xE00.pdb
 128 125 0 0 0
SMALL
GASTEIGER

@<TRIPOS>ATOM
      1  N         44.1040   -9.9670   90.9870 N.3   213  ASP213     -0.1225
      2  CA        44.5660   -8.5670   90.9610 C.3   213  ASP213      0.1805
      3  C         44.3600   -7.8250   92.2920 C.2   213  ASP213      0.2597
      4  O         43.2500   -7.3520   92.6020 O.2   213  ASP213     -0.2718
      5  CB        43.8610   -7.8010   89.8100 C.3   213  ASP213      0.1424
      6  CG        44.5310   -6.4630   89.4730 C.2   213  ASP213      0.3668
      7  OD1       44.9950   -5.7880   90.4160 O.co2 213  ASP213     -0.2456
      8  OD2       44.6500   -6.0100   88.2860 O.co2 213  ASP213     -0.2456
      9  N         45.4340   -7.7030   93.0660 N.am  214  ALA214     -0.1979
     10  CA        45.4350   -6.8390   94.2240 C.3   214  ALA214      0.1597
     11  C         46.1470   -5.5340   93.8750 C.2   214  ALA214      0.2287
     12  O         45.9260   -4.5170   94.5200 O.2   214  ALA214     -0.2864
     13  CB        46.1640   -7.5180   95.3850 C.3   214  ALA214      0.0319
     14  N         45.7710   -3.3490   91.5600 N.3   216  HIS216     -0.1226
     15  CA        44.8940   -2.2460   91.2060 C.3   216  HIS216      0.1752
     16  C         44.4270   -1.4410   92.3950 C.2   216  HIS216      0.2596
     17  O         44.0320   -0.2990   92.2040 O.2   216  HIS216     -0.2718
     18  CB        43.6800   -2.6930   90.3420 C.3   216  HIS216      0.0759
     19  CG        42.5430   -3.2810   91.1290 C.ar  216  HIS216      0.0818
     20  ND1       42.6300   -4.4920   91.7810 N.ar  216  HIS216     -0.2268
     21  CD2       41.2930   -2.8100   91.3780 C.ar  216  HIS216      0.1154
     22  CE1       41.4800   -4.7500   92.3870 C.ar  216  HIS216      0.1986
     23  NE2       40.6620   -3.7360   92.1760 N.ar  216  HIS216     -0.2212
     24  N         44.5300   -1.9970   93.6030 N.am  217  THR217     -0.1953
     25  CA        44.0230   -1.3080   94.8000 C.3   217  THR217      0.1897
     26  C         44.6580    0.0810   94.9740 C.2   217  THR217      0.2313
     27  O         43.9590    1.0780   95.2720 O.2   217  THR217     -0.2863
     28  CB        44.3380   -2.1540   96.0020 C.3   217  THR217      0.1794
     29  OG1       43.6420   -3.4000   95.8880 O.3   217  THR217     -0.2208
     30  CG2       43.8240   -1.4990   97.3010 C.3   217  THR217      0.0378
     31  N         41.5850    2.2710   93.7500 N.3   221  HIS221     -0.1241
     32  CA        40.9670    2.5810   95.0550 C.3   221  HIS221      0.1621
     33  C         41.7650    3.5470   95.9340 C.2   221  HIS221      0.2264
     34  O         41.6840    3.5390   97.2040 O.2   221  HIS221     -0.2867
     35  CB        40.6770    1.2640   95.7660 C.3   221  HIS221      0.0745
     36  CG        39.8900    0.3190   94.9220 C.ar  221  HIS221      0.0817
     37  ND1       38.6970    0.6780   94.3300 N.ar  221  HIS221     -0.2268
     38  CD2       40.1360   -0.9570   94.5390 C.ar  221  HIS221      0.1154
     39  CE1       38.2230   -0.3470   93.6480 C.ar  221  HIS221      0.1986
     40  NE2       39.0590   -1.3660   93.7870 N.ar  221  HIS221     -0.2212
     41  N         43.7600   -0.6580  102.4290 N.3   231  PRO231     -0.2116
     42  CA        45.0760   -0.7390  103.0930 C.3   231  PRO231      0.1372
     43  C         45.9880    0.3870  102.6140 C.2   231  PRO231      0.2244
     44  O         46.1340    0.5610  101.3960 O.2   231  PRO231     -0.2868
     45  CB        45.6370   -2.0660  102.6110 C.3   231  PRO231      0.0268
     46  CG        44.4940   -2.8180  102.0400 C.3   231  PRO231      0.0207
     47  CD        43.4380   -1.8690  101.6500 C.3   231  PRO231      0.0892
     48  N         51.1480   -3.8560  100.7980 N.3   236  PHE236     -0.1241
     49  CA        50.1990   -4.7010  101.5290 C.3   236  PHE236      0.1605
     50  C         50.0650   -6.1020  100.9490 C.2   236  PHE236      0.2264
     51  O         49.9210   -7.0510  101.6990 O.2   236  PHE236     -0.2867
     52  CB        48.8270   -4.0390  101.7010 C.3   236  PHE236      0.0534
     53  CG        47.9040   -4.1800  100.4720 C.ar  236  PHE236     -0.0203
     54  CD1       46.8320   -5.0610  100.4910 C.ar  236  PHE236     -0.0042
     55  CD2       48.1500   -3.4530   99.3190 C.ar  236  PHE236     -0.0042
     56  CE1       45.9960   -5.2120   99.3840 C.ar  236  PHE236     -0.0003
     57  CE2       47.3280   -3.5990   98.1900 C.ar  236  PHE236     -0.0003
     58  CZ        46.2430   -4.4810   98.2430 C.ar  236  PHE236     -0.0000
     59  N         45.4840  -12.5500  101.2920 N.3   254  ILE254     -0.1245
     60  CA        46.2970  -11.4970  101.8810 C.3   254  ILE254      0.1561
     61  C         46.0170  -11.3660  103.3900 C.2   254  ILE254      0.2260
     62  O         44.8780  -11.3630  103.8030 O.2   254  ILE254     -0.2867
     63  CB        46.0050  -10.1460  101.1740 C.3   254  ILE254      0.0252
     64  CG1       46.3520  -10.2400   99.6770 C.3   254  ILE254      0.0019
     65  CG2       46.8050   -8.9850  101.8630 C.3   254  ILE254      0.0019
     66  CD1       46.0910   -8.9100   98.8490 C.3   254  ILE254      0.0001
     67  N         42.0200  -10.7020  103.4300 N.3   293  PHE293     -0.1241
     68  CA        41.3180  -10.6410  102.1160 C.3   293  PHE293      0.1605
     69  C         41.5160  -11.9230  101.3460 C.2   293  PHE293      0.2264
     70  O         42.6590  -12.3730  101.1990 O.2   293  PHE293     -0.2867
     71  CB        41.8560   -9.5460  101.1920 C.3   293  PHE293      0.0534
     72  CG        41.8600   -8.1940  101.7940 C.ar  293  PHE293     -0.0203
     73  CD1       43.0430   -7.6430  102.2620 C.ar  293  PHE293     -0.0042
     74  CD2       40.6840   -7.4690  101.9290 C.ar  293  PHE293     -0.0042
     75  CE1       43.0550   -6.3820  102.8460 C.ar  293  PHE293     -0.0003
     76  CE2       40.6910   -6.2060  102.5260 C.ar  293  PHE293     -0.0003
     77  CZ        41.8750   -5.6750  102.9860 C.ar  293  PHE293     -0.0000
     78  N         40.3040  -13.2270   97.4580 N.3   295  HIS295     -0.1241
     79  CA        39.6500  -12.8420   96.1940 C.3   295  HIS295      0.1621
     80  C         39.9770  -13.9310   95.2040 C.2   295  HIS295      0.2264
     81  O         41.1130  -14.4220   95.2060 O.2   295  HIS295     -0.2867
     82  CB        40.1800  -11.4760   95.6760 C.3   295  HIS295      0.0745
     83  CG        41.6630  -11.4660   95.4260 C.ar  295  HIS295      0.0817
     84  ND1       42.2140  -11.7190   94.1870 N.ar  295  HIS295     -0.2268
     85  CD2       42.7090  -11.3480   96.2840 C.ar  295  HIS295      0.1154
     86  CE1       43.5360  -11.7090   94.2820 C.ar  295  HIS295      0.1986
     87  NE2       43.8600  -11.4880   95.5440 N.ar  295  HIS295     -0.2212
     88  N         36.3050  -10.1780  102.3950 N.3   307  PHE307     -0.1241
     89  CA        37.1370   -9.0180  102.7230 C.3   307  PHE307      0.1605
     90  C         36.8080   -8.4600  104.1150 C.2   307  PHE307      0.2264
     91  O         35.6550   -8.4580  104.5430 O.2   307  PHE307     -0.2867
     92  CB        36.9420   -7.8530  101.7280 C.3   307  PHE307      0.0534
     93  CG        37.2400   -8.1760  100.2640 C.ar  307  PHE307     -0.0203
     94  CD1       36.5020   -7.5590   99.2550 C.ar  307  PHE307     -0.0042
     95  CD2       38.2500   -9.0810   99.8960 C.ar  307  PHE307     -0.0042
     96  CE1       36.7800   -7.8310   97.8800 C.ar  307  PHE307     -0.0003
     97  CE2       38.5220   -9.3610   98.5460 C.ar  307  PHE307     -0.0003
     98  CZ        37.7790   -8.7380   97.5300 C.ar  307  PHE307     -0.0000
     99  N         36.5440   -5.0250  106.0520 N.3   309  MET309     -0.1245
    100  CA        36.3900   -3.6220  105.6390 C.3   309  MET309      0.1570
    101  C         35.3960   -2.8490  106.5360 C.2   309  MET309      0.2261
    102  O         34.4310   -3.4360  107.0780 O.2   309  MET309     -0.2867
    103  CB        35.9630   -3.5480  104.1500 C.3   309  MET309      0.0387
    104  CG        36.7150   -2.4800  103.2970 C.3   309  MET309      0.0595
    105  SD        37.4300   -3.1400  101.7760 S.3   309  MET309     -0.1393
    106  CE        36.4260   -4.3740  101.4120 C.3   309  MET309      0.0692
    107  N         31.3770   -2.6630   98.1610 N.3   362  PHE362     -0.1241
    108  CA        31.1320   -3.4080   96.9230 C.3   362  PHE362      0.1605
    109  C         29.6610   -3.3760   96.5280 C.2   362  PHE362      0.2264
    110  O         28.8280   -2.7930   97.2380 O.2   362  PHE362     -0.2867
    111  CB        31.7190   -4.8660   97.0360 C.3   362  PHE362      0.0534
    112  CG        33.2070   -4.8640   96.9180 C.ar  362  PHE362     -0.0203
    113  CD1       33.9890   -4.5510   98.0250 C.ar  362  PHE362     -0.0042
    114  CD2       33.8290   -5.0480   95.6490 C.ar  362  PHE362     -0.0042
    115  CE1       35.3940   -4.4410   97.9080 C.ar  362  PHE362     -0.0003
    116  CE2       35.2320   -4.9830   95.5200 C.ar  362  PHE362     -0.0003
    117  CZ        36.0210   -4.6510   96.6580 C.ar  362  PHE362     -0.0000
    118  N         34.2180    1.1640   96.3340 N.3   368  PHE368     -0.1241
    119  CA        35.2450    0.4810   95.5670 C.3   368  PHE368      0.1605
    120  C         34.6830    0.1140   94.1890 C.2   368  PHE368      0.2264
    121  O         35.2430    0.4890   93.1390 O.2   368  PHE368     -0.2867
    122  CB        35.7170   -0.8280   96.2580 C.3   368  PHE368      0.0534
    123  CG        36.6240   -0.6370   97.4710 C.ar  368  PHE368     -0.0203
    124  CD1       36.1410   -0.1200   98.6770 C.ar  368  PHE368     -0.0042
    125  CD2       37.9550   -1.0550   97.4210 C.ar  368  PHE368     -0.0042
    126  CE1       37.0050    0.0290   99.8080 C.ar  368  PHE368     -0.0003
    127  CE2       38.8340   -0.9080   98.5530 C.ar  368  PHE368     -0.0003
    128  CZ        38.3420   -0.3770   99.7420 C.ar  368  PHE368     -0.0000
@<TRIPOS>BOND
     1     8     6   ar
     2     6     5    1
     3     6     7   ar
     4     5     2    1
     5    18    19    1
     6    18    15    1
     7     2     1    1
     8     2     3    1
     9    19    21   ar
    10    19    20   ar
    11    15    14    1
    12    15    16    1
    13    21    23   ar
    14    20    22   ar
    15    23    22   ar
    16    17    16    2
    17     3     4    2
    18     3     9   am
    19    16    24   am
    20     9    10    1
    21   121   120    2
    22    24    25    1
    23    39    40   ar
    24    39    37   ar
    25    31    32    1
    26    40    38   ar
    27    11    10    1
    28    11    12    2
    29    84    86   ar
    30    84    83   ar
    31   120   119    1
    32    10    13    1
    33    86    87   ar
    34    37    36   ar
    35    38    36   ar
    36    25    26    1
    37    25    28    1
    38    36    35    1
    39    26    27    2
    40    32    35    1
    41    32    33    1
    42    80    81    2
    43    80    79    1
    44    83    82    1
    45    83    85   ar
    46   116   114   ar
    47   116   117   ar
    48    87    85   ar
    49   119   122    1
    50   119   118    1
    51   114   112   ar
    52    82    79    1
    53    29    28    1
    54    33    34    2
    55    28    30    1
    56    79    78    1
    57   122   123    1
    58   109   108    1
    59   109   110    2
    60   117   115   ar
    61   112   111    1
    62   112   113   ar
    63   108   111    1
    64   108   107    1
    65   125   123   ar
    66   125   127   ar
    67   123   124   ar
    68    98    96   ar
    69    98    97   ar
    70    96    94   ar
    71   115   113   ar
    72    57    58   ar
    73    57    55   ar
    74    58    56   ar
    75    97    95   ar
    76   127   128   ar
    77   124   126   ar
    78    66    64    1
    79    94    93   ar
    80    55    53   ar
    81    56    54   ar
    82    64    63    1
    83   128   126   ar
    84    95    93   ar
    85    93    92    1
    86    53    54   ar
    87    53    52    1
    88    48    49    1
    89    50    49    1
    90    50    51    2
    91    63    65    1
    92    63    60    1
    93    71    72    1
    94    71    68    1
    95    70    69    2
    96    59    60    1
    97    69    68    1
    98    44    43    2
    99   106   105    1
   100    49    52    1
   101    47    46    1
   102    47    41    1
   103    92    89    1
   104   105   104    1
   105    72    74   ar
   106    72    73   ar
   107    60    61    1
   108    74    76   ar
   109    46    45    1
   110    68    67    1
   111    73    75   ar
   112    88    89    1
   113    41    42    1
   114    76    77   ar
   115    45    42    1
   116    43    42    1
   117    89    90    1
   118    75    77   ar
   119   104   103    1
   120    61    62    2
   121    90    91    2
   122   103   100    1
   123   100    99    1
   124   100   101    1
   125   101   102    2
