@<TRIPOS>MOLECULE
tmp/2b1xE04.pdb
 87 86 0 0 0
SMALL
GASTEIGER

@<TRIPOS>ATOM
      1  N         11.7690  -21.4430   93.9090 N.3    61  TYR61      -0.1241
      2  CA        12.5390  -21.3940   92.6870 C.3    61  TYR61       0.1605
      3  C         13.1370  -20.0110   92.4740 C.2    61  TYR61       0.2264
      4  O         12.6450  -19.0480   93.0370 O.2    61  TYR61      -0.2867
      5  CB        11.6470  -21.7930   91.4810 C.3    61  TYR61       0.0534
      6  CG        10.5800  -20.7770   91.1890 C.ar   61  TYR61      -0.0201
      7  CD1       10.8590  -19.6410   90.4130 C.ar   61  TYR61      -0.0009
      8  CD2        9.2950  -20.9120   91.7370 C.ar   61  TYR61      -0.0009
      9  CE1        9.8770  -18.6510   90.1780 C.ar   61  TYR61       0.0417
     10  CE2        8.3100  -19.9570   91.4870 C.ar   61  TYR61       0.0417
     11  CZ         8.6070  -18.8340   90.6970 C.ar   61  TYR61       0.1957
     12  OH         7.6530  -17.8860   90.4660 O.3    61  TYR61      -0.2866
     13  N          7.3580  -20.7740   81.0970 N.3    95  VAL95      -0.1231
     14  CA         6.3650  -21.2840   82.0410 C.3    95  VAL95       0.1692
     15  C          6.5020  -20.5940   83.3970 C.2    95  VAL95       0.2592
     16  O          5.6930  -20.8060   84.2960 O.2    95  VAL95      -0.2718
     17  CB         6.4030  -22.8350   82.1690 C.3    95  VAL95       0.0266
     18  CG1        6.1560  -23.4680   80.7740 C.3    95  VAL95       0.0020
     19  CG2        7.7470  -23.3070   82.7500 C.3    95  VAL95       0.0020
     20  N          7.5130  -19.7450   83.5330 N.am   96  CYS96      -0.1956
     21  CA         7.6110  -18.8910   84.7100 C.3    96  CYS96       0.1843
     22  C          8.1660  -17.5530   84.2700 C.2    96  CYS96       0.2625
     23  O          9.2560  -17.5040   83.7460 O.2    96  CYS96      -0.2714
     24  CB         8.5240  -19.5630   85.7120 C.3    96  CYS96       0.0997
     25  SG         8.8490  -18.5680   87.1490 S.3    96  CYS96      -0.0797
     26  N          7.4180  -16.4640   84.4390 N.am   97  ARG97      -0.1963
     27  CA         7.9230  -15.1410   84.0250 C.3    97  ARG97       0.1729
     28  C          8.3430  -14.2750   85.2500 C.2    97  ARG97       0.2616
     29  O          8.7480  -13.1030   85.0810 O.2    97  ARG97      -0.2715
     30  CB         6.9160  -14.3850   83.1290 C.3    97  ARG97       0.0348
     31  CG         6.9370  -14.7570   81.6100 C.3    97  ARG97       0.0492
     32  CD         5.6260  -14.4390   80.8410 C.3    97  ARG97       0.2205
     33  NE         4.4430  -14.8320   81.6190 N.pl3  97  ARG97      -0.0865
     34  CZ         3.4260  -14.0360   81.9290 C.cat  97  ARG97       0.5346
     35  NH1        3.3800  -12.7640   81.5210 N.pl3  97  ARG97       0.1354
     36  NH2        2.4410  -14.4950   82.6900 N.pl3  97  ARG97       0.1354
     37  N          8.2640  -14.8560   86.4540 N.am   98  ALA98      -0.1977
     38  CA         8.8080  -14.1980   87.6630 C.3    98  ALA98       0.1597
     39  C         10.3040  -14.4980   87.8410 C.2    98  ALA98       0.2287
     40  O         10.8230  -15.4350   87.2440 O.2    98  ALA98      -0.2864
     41  CB         8.0140  -14.6070   88.9220 C.3    98  ALA98       0.0319
     42  N          6.1040  -22.2850   93.9650 N.3   103  THR103     -0.1218
     43  CA         4.9460  -22.9310   93.3500 C.3   103  THR103      0.1862
     44  C          5.1250  -24.4310   93.3030 C.2   103  THR103      0.2287
     45  O          6.2650  -24.9200   93.2390 O.2   103  THR103     -0.2866
     46  CB         4.6960  -22.3400   91.9340 C.3   103  THR103      0.1770
     47  OG1        3.4230  -22.7780   91.4870 O.3   103  THR103     -0.2211
     48  CG2        5.7160  -22.8570   90.8640 C.3   103  THR103      0.0375
     49  N          3.5700  -26.0940   90.7670 N.3   105  HIS105     -0.1226
     50  CA         3.4150  -26.3860   89.3320 C.3   105  HIS105      0.1752
     51  C          3.7140  -25.1610   88.4960 C.2   105  HIS105      0.2596
     52  O          3.5030  -24.0210   88.9610 O.2   105  HIS105     -0.2718
     53  CB         1.9830  -26.8580   88.9960 C.3   105  HIS105      0.0759
     54  CG         1.6300  -28.1880   89.6030 C.ar  105  HIS105      0.0818
     55  ND1        1.3280  -28.3330   90.9380 N.ar  105  HIS105     -0.2268
     56  CD2        1.5570  -29.4290   89.0620 C.ar  105  HIS105      0.1154
     57  CE1        1.0950  -29.6100   91.2010 C.ar  105  HIS105      0.1986
     58  NE2        1.2200  -30.2940   90.0770 N.ar  105  HIS105     -0.2212
     59  N          4.1740  -25.3970   87.2650 N.am  106  PHE106     -0.1962
     60  CA         4.3320  -24.3420   86.2760 C.3   106  PHE106      0.1771
     61  C          3.3200  -24.5590   85.1690 C.2   106  PHE106      0.2619
     62  O          3.2950  -25.6080   84.5620 O.2   106  PHE106     -0.2715
     63  CB         5.7670  -24.3260   85.7220 C.3   106  PHE106      0.0574
     64  CG         6.7980  -24.1010   86.7990 C.ar  106  PHE106     -0.0200
     65  CD1        7.5390  -25.1540   87.2780 C.ar  106  PHE106     -0.0042
     66  CD2        6.9850  -22.8410   87.3460 C.ar  106  PHE106     -0.0042
     67  CE1        8.4940  -24.9720   88.2950 C.ar  106  PHE106     -0.0003
     68  CE2        7.9530  -22.6230   88.3700 C.ar  106  PHE106     -0.0003
     69  CZ         8.6920  -23.7100   88.8590 C.ar  106  PHE106     -0.0000
     70  N          2.4590  -23.5720   84.9460 N.am  107  ARG107     -0.1977
     71  CA         1.3850  -23.6880   83.9730 C.3   107  ARG107      0.1597
     72  C          1.6790  -22.7050   82.8770 C.2   107  ARG107      0.2287
     73  O          1.7840  -21.5100   83.1490 O.2   107  ARG107     -0.2864
     74  CB         0.0700  -23.3210   84.6540 C.3   107  ARG107      0.0334
     75  CG        -1.1360  -23.5970   83.8050 C.3   107  ARG107      0.0492
     76  CD        -1.9400  -24.7430   84.3660 C.3   107  ARG107      0.2205
     77  NE        -3.2550  -24.3130   84.8000 N.pl3 107  ARG107     -0.0865
     78  CZ        -4.3730  -24.5580   84.1340 C.cat 107  ARG107      0.5346
     79  NH1       -4.3600  -25.2380   82.9780 N.pl3 107  ARG107      0.1354
     80  NH2       -5.5090  -24.1040   84.6320 N.pl3 107  ARG107      0.1354
     81  N          1.0630  -20.1440   80.1540 N.3   109  PRO109     -0.2116
     82  CA        -0.0590  -19.2590   79.7800 C.3   109  PRO109      0.1372
     83  C         -0.5830  -19.4740   78.3560 C.2   109  PRO109      0.2244
     84  O         -1.7370  -19.0630   78.0890 O.2   109  PRO109     -0.2868
     85  CB         0.5400  -17.8500   79.8720 C.3   109  PRO109      0.0268
     86  CG         1.7140  -17.9990   80.7330 C.3   109  PRO109      0.0207
     87  CD         2.2800  -19.3770   80.4730 C.3   109  PRO109      0.0892
@<TRIPOS>BOND
     1    84    83    2
     2    83    82    1
     3    82    85    1
     4    82    81    1
     5    85    86    1
     6    81    87    1
     7    87    86    1
     8    18    17    1
     9    32    31    1
    10    32    33    1
    11    13    14    1
    12    35    34    1
    13    31    30    1
    14    33    34    2
    15    34    36    1
    16    14    17    1
    17    14    15    1
    18    17    19    1
    19    72    73    2
    20    72    71    1
    21    79    78    1
    22    30    27    1
    23    15    20   am
    24    15    16    2
    25    20    21    1
    26    23    22    2
    27    75    76    1
    28    75    74    1
    29    71    74    1
    30    71    70    1
    31    27    26    1
    32    27    28    1
    33    78    80    1
    34    78    77    2
    35    22    26   am
    36    22    21    1
    37    76    77    1
    38    62    61    2
    39    21    24    1
    40    70    61   am
    41    29    28    2
    42    61    60    1
    43    28    37   am
    44    24    25    1
    45    63    60    1
    46    63    64    1
    47    60    59    1
    48    37    38    1
    49    64    65   ar
    50    64    66   ar
    51    40    39    2
    52    59    51   am
    53    65    67   ar
    54    66    68   ar
    55    38    39    1
    56    38    41    1
    57    67    69   ar
    58    68    69   ar
    59    51    52    2
    60    51    50    1
    61    53    50    1
    62    53    54    1
    63    56    54   ar
    64    56    58   ar
    65    50    49    1
    66    54    55   ar
    67    58    57   ar
    68     9     7   ar
    69     9    11   ar
    70     7     6   ar
    71    12    11    1
    72    11    10   ar
    73    48    46    1
    74    55    57   ar
    75     6     5    1
    76     6     8   ar
    77     5     2    1
    78    47    46    1
    79    10     8   ar
    80    46    43    1
    81     3     2    1
    82     3     4    2
    83     2     1    1
    84    45    44    2
    85    44    43    1
    86    43    42    1
