@<TRIPOS>MOLECULE
tmp/2b1xE03.pdb
 123 122 0 0 0
SMALL
GASTEIGER

@<TRIPOS>ATOM
      1  N         40.8840    5.8550  104.4730 N.3   228  GLY228     -0.1210
      2  CA        41.2600    4.9210  105.5230 C.3   228  GLY228      0.1956
      3  C         40.5620    3.5780  105.4370 C.2   228  GLY228      0.2612
      4  O         40.6240    2.7920  106.3810 O.2   228  GLY228     -0.2717
      5  N         39.9020    3.3080  104.3080 N.am  229  LEU229     -0.1965
      6  CA        39.1210    2.0890  104.1470 C.3   229  LEU229      0.1728
      7  C         39.8930    1.0010  103.4050 C.2   229  LEU229      0.2616
      8  O         39.6570   -0.1770  103.6350 O.2   229  LEU229     -0.2715
      9  CB        37.7890    2.3850  103.4210 C.3   229  LEU229      0.0311
     10  CG        36.6460    2.9210  104.2890 C.3   229  LEU229      0.0022
     11  CD1       36.3300    4.3630  103.9640 C.3   229  LEU229      0.0001
     12  CD2       35.4260    2.0270  104.0530 C.3   229  LEU229      0.0001
     13  N         40.8020    1.3860  102.5110 N.am  230  ALA230     -0.1964
     14  CA        41.6470    0.4160  101.8210 C.3   230  ALA230      0.1713
     15  C         43.0120    0.4420  102.5100 C.2   230  ALA230      0.2458
     16  O         43.3930    1.4640  103.1040 O.2   230  ALA230     -0.2730
     17  CB        41.7740    0.7660  100.3460 C.3   230  ALA230      0.0333
     18  N         43.7600   -0.6580  102.4290 N.am  231  PRO231     -0.2716
     19  CA        45.0760   -0.7390  103.0930 C.3   231  PRO231      0.1521
     20  C         45.9880    0.3870  102.6140 C.2   231  PRO231      0.2440
     21  O         46.1340    0.5610  101.3960 O.2   231  PRO231     -0.2731
     22  CB        45.6370   -2.0660  102.6110 C.3   231  PRO231      0.0310
     23  CG        44.4940   -2.8180  102.0400 C.3   231  PRO231      0.0237
     24  CD        43.4380   -1.8690  101.6500 C.3   231  PRO231      0.0939
     25  N         46.5820    1.1450  103.5460 N.am  232  PRO232     -0.2716
     26  CA        47.4620    2.2650  103.1950 C.3   232  PRO232      0.1536
     27  C         48.8910    1.8600  102.7880 C.2   232  PRO232      0.2598
     28  O         49.5640    2.6290  102.1190 O.2   232  PRO232     -0.2715
     29  CB        47.5170    3.0820  104.4960 C.3   232  PRO232      0.0310
     30  CG        47.3560    2.0530  105.5850 C.3   232  PRO232      0.0237
     31  CD        46.4300    0.9960  105.0090 C.3   232  PRO232      0.0939
     32  N         49.3470    0.6850  103.2090 N.am  233  ASP233     -0.1972
     33  CA        50.6690    0.2030  102.8420 C.3   233  ASP233      0.1709
     34  C         50.7210   -0.1810  101.3640 C.2   233  ASP233      0.2293
     35  O         50.0370   -1.0920  100.9510 O.2   233  ASP233     -0.2864
     36  CB        51.0170   -1.0170  103.7090 C.3   233  ASP233      0.1436
     37  CG        52.4770   -1.4500  103.5750 C.2   233  ASP233      0.3671
     38  OD1       53.2340   -0.8560  102.7640 O.co2 233  ASP233     -0.2456
     39  OD2       52.9580   -2.3930  104.2600 O.co2 233  ASP233     -0.2456
     40  N         51.1480   -3.8560  100.7980 N.3   236  PHE236     -0.1241
     41  CA        50.1990   -4.7010  101.5290 C.3   236  PHE236      0.1605
     42  C         50.0650   -6.1020  100.9490 C.2   236  PHE236      0.2264
     43  O         49.9210   -7.0510  101.6990 O.2   236  PHE236     -0.2867
     44  CB        48.8270   -4.0390  101.7010 C.3   236  PHE236      0.0534
     45  CG        47.9040   -4.1800  100.4720 C.ar  236  PHE236     -0.0203
     46  CD1       46.8320   -5.0610  100.4910 C.ar  236  PHE236     -0.0042
     47  CD2       48.1500   -3.4530   99.3190 C.ar  236  PHE236     -0.0042
     48  CE1       45.9960   -5.2120   99.3840 C.ar  236  PHE236     -0.0003
     49  CE2       47.3280   -3.5990   98.1900 C.ar  236  PHE236     -0.0003
     50  CZ        46.2430   -4.4810   98.2430 C.ar  236  PHE236     -0.0000
     51  N         45.4840  -12.5500  101.2920 N.3   254  ILE254     -0.1231
     52  CA        46.2970  -11.4970  101.8810 C.3   254  ILE254      0.1692
     53  C         46.0170  -11.3660  103.3900 C.2   254  ILE254      0.2593
     54  O         44.8780  -11.3630  103.8030 O.2   254  ILE254     -0.2718
     55  CB        46.0050  -10.1460  101.1740 C.3   254  ILE254      0.0266
     56  CG1       46.3520  -10.2400   99.6770 C.3   254  ILE254      0.0019
     57  CG2       46.8050   -8.9850  101.8630 C.3   254  ILE254      0.0020
     58  CD1       46.0910   -8.9100   98.8490 C.3   254  ILE254      0.0001
     59  N         47.0660  -11.2550  104.2000 N.am  255  GLY255     -0.1943
     60  CA        46.9270  -11.0140  105.6350 C.3   255  GLY255      0.1998
     61  C         47.6730   -9.7690  106.0580 C.2   255  GLY255      0.2481
     62  O         48.3120   -9.1390  105.2210 O.2   255  GLY255     -0.2729
     63  N         47.5920   -9.3840  107.3360 N.am  256  PRO256     -0.2715
     64  CA        48.3050   -8.1930  107.8260 C.3   256  PRO256      0.1521
     65  C         49.8200   -8.3910  107.9690 C.2   256  PRO256      0.2440
     66  O         50.2750   -9.5280  108.0160 O.2   256  PRO256     -0.2731
     67  CB        47.6670   -7.9410  109.2030 C.3   256  PRO256      0.0310
     68  CG        47.2160   -9.2800  109.6460 C.3   256  PRO256      0.0237
     69  CD        46.7540   -9.9920  108.3830 C.3   256  PRO256      0.0939
     70  N         50.5830   -7.2980  108.0130 N.am  257  PRO257     -0.2727
     71  CA        52.0350   -7.3600  108.2270 C.3   257  PRO257      0.1402
     72  C         52.3870   -7.7700  109.6720 C.2   257  PRO257      0.2269
     73  O         51.5260   -7.6760  110.5390 O.2   257  PRO257     -0.2865
     74  CB        52.4800   -5.9140  107.9680 C.3   257  PRO257      0.0296
     75  CG        51.2770   -5.0870  108.2550 C.3   257  PRO257      0.0237
     76  CD        50.1070   -5.9130  107.8330 C.3   257  PRO257      0.0939
     77  N         51.2460   -5.6560  112.8470 N.3   260  MET260     -0.1245
     78  CA        49.8180   -5.3370  112.8710 C.3   260  MET260      0.1570
     79  C         49.0230   -6.5610  113.3160 C.2   260  MET260      0.2261
     80  O         48.7720   -7.4750  112.5170 O.2   260  MET260     -0.2867
     81  CB        49.3450   -4.8780  111.4880 C.3   260  MET260      0.0387
     82  CG        48.3190   -3.7720  111.5200 C.3   260  MET260      0.0595
     83  SD        46.8750   -4.1040  110.5050 S.3   260  MET260     -0.1393
     84  CE        47.4080   -3.3950  108.9200 C.3   260  MET260      0.0692
     85  N         45.6970   -8.3660  114.0540 N.3   262  LEU262     -0.1245
     86  CA        44.2740   -8.3140  113.7820 C.3   262  LEU262      0.1561
     87  C         43.6610   -9.5770  114.3730 C.2   262  LEU262      0.2260
     88  O         44.3280  -10.6200  114.4310 O.2   262  LEU262     -0.2867
     89  CB        44.0030   -8.2260  112.2710 C.3   262  LEU262      0.0270
     90  CG        44.3310   -6.8850  111.5830 C.3   262  LEU262      0.0019
     91  CD1       43.9650   -6.9400  110.1040 C.3   262  LEU262      0.0001
     92  CD2       43.6430   -5.7170  112.2580 C.3   262  LEU262      0.0001
     93  N         43.0680  -11.5460  105.9290 N.3   292  ALA292     -0.1231
     94  CA        42.2730  -10.2960  105.8470 C.3   292  ALA292      0.1694
     95  C         41.4670  -10.2100  104.5470 C.2   292  ALA292      0.2592
     96  O         40.3450   -9.6880  104.5520 O.2   292  ALA292     -0.2718
     97  CB        43.1700   -9.0770  105.9660 C.3   292  ALA292      0.0304
     98  N         42.0200  -10.7020  103.4300 N.am  293  PHE293     -0.1976
     99  CA        41.3180  -10.6410  102.1160 C.3   293  PHE293      0.1639
    100  C         41.5160  -11.9230  101.3460 C.2   293  PHE293      0.2290
    101  O         42.6590  -12.3730  101.1990 O.2   293  PHE293     -0.2864
    102  CB        41.8560   -9.5460  101.1920 C.3   293  PHE293      0.0560
    103  CG        41.8600   -8.1940  101.7940 C.ar  293  PHE293     -0.0200
    104  CD1       43.0430   -7.6430  102.2620 C.ar  293  PHE293     -0.0042
    105  CD2       40.6840   -7.4690  101.9290 C.ar  293  PHE293     -0.0042
    106  CE1       43.0550   -6.3820  102.8460 C.ar  293  PHE293     -0.0003
    107  CE2       40.6910   -6.2060  102.5260 C.ar  293  PHE293     -0.0003
    108  CZ        41.8750   -5.6750  102.9860 C.ar  293  PHE293     -0.0000
    109  N         37.8180   -7.8990  104.7690 N.3   308  LEU308     -0.1245
    110  CA        37.6430   -7.2560  106.0690 C.3   308  LEU308      0.1561
    111  C         37.6620   -5.7270  105.8200 C.2   308  LEU308      0.2260
    112  O         38.6970   -5.2200  105.4170 O.2   308  LEU308     -0.2867
    113  CB        38.8440   -7.6300  106.9370 C.3   308  LEU308      0.0270
    114  CG        38.8380   -7.9270  108.4400 C.3   308  LEU308      0.0019
    115  CD1       40.1750   -7.4610  109.0730 C.3   308  LEU308      0.0001
    116  CD2       37.6500   -7.3960  109.2200 C.3   308  LEU308      0.0001
    117  N         36.6390   -2.3420  110.9370 N.3   317  PRO317     -0.2116
    118  CA        36.2220   -3.2570  109.8590 C.3   317  PRO317      0.1372
    119  C         35.4950   -4.4890  110.3440 C.2   317  PRO317      0.2244
    120  O         35.7280   -4.9630  111.4840 O.2   317  PRO317     -0.2868
    121  CB        37.5400   -3.6420  109.1790 C.3   317  PRO317      0.0268
    122  CG        38.6060   -3.4070  110.2210 C.3   317  PRO317      0.0207
    123  CD        38.1060   -2.2810  111.0860 C.3   317  PRO317      0.0892
@<TRIPOS>BOND
     1    49    50   ar
     2    49    47   ar
     3    50    48   ar
     4    58    56    1
     5    47    45   ar
     6    48    46   ar
     7    56    55    1
     8    17    14    1
     9    45    46   ar
    10    45    44    1
    11    40    41    1
    12    42    41    1
    13    42    43    2
    14    35    34    2
    15    55    57    1
    16    55    52    1
    17   102   103    1
    18   102    99    1
    19   101   100    2
    20    51    52    1
    21   100    99    1
    22    34    33    1
    23    21    20    2
    24    41    44    1
    25    24    23    1
    26    24    18    1
    27   103   105   ar
    28   103   104   ar
    29    14    15    1
    30    14    13    1
    31    52    53    1
    32   105   107   ar
    33    23    22    1
    34    99    98    1
    35    28    27    2
    36   104   106   ar
    37    18    15   am
    38    18    19    1
    39    15    16    2
    40    13     7   am
    41   107   108   ar
    42    22    19    1
    43    20    19    1
    44    20    25   am
    45    38    37   ar
    46    27    26    1
    47    27    32   am
    48    33    32    1
    49    33    36    1
    50   106   108   ar
    51    26    25    1
    52    26    29    1
    53    53    54    2
    54    53    59   am
    55     7     8    2
    56     7     6    1
    57     9     6    1
    58     9    10    1
    59    98    95   am
    60    25    31    1
    61    37    36    1
    62    37    39   ar
    63    11    10    1
    64    12    10    1
    65     6     5    1
    66    59    60    1
    67     5     3   am
    68     1     2    1
    69    29    30    1
    70    95    96    2
    71    95    94    1
    72   109   110    1
    73    31    30    1
    74    62    61    2
    75   112   111    2
    76     3     2    1
    77     3     4    2
    78    60    61    1
    79   111   110    1
    80    94    93    1
    81    94    97    1
    82    61    63   am
    83   110   113    1
    84   113   114    1
    85    63    64    1
    86    63    69    1
    87    64    65    1
    88    64    67    1
    89    76    70    1
    90    76    75    1
    91    74    71    1
    92    74    75    1
    93    65    70   am
    94    65    66    2
    95    70    71    1
    96    71    72    1
    97    69    68    1
    98   114   115    1
    99   114   116    1
   100    84    83    1
   101   121   118    1
   102   121   122    1
   103    67    68    1
   104    72    73    2
   105   118   119    1
   106   118   117    1
   107    91    90    1
   108   122   123    1
   109   119   120    2
   110    83    82    1
   111   117   123    1
   112    81    82    1
   113    81    78    1
   114    90    92    1
   115    90    89    1
   116    89    86    1
   117    80    79    2
   118    77    78    1
   119    78    79    1
   120    86    85    1
   121    86    87    1
   122    87    88    2
