@<TRIPOS>MOLECULE
tmp/2b24E00.pdb
 155 151 0 0 0
SMALL
GASTEIGER

@<TRIPOS>ATOM
      1  N        118.6470  117.3370   94.6840 N.3   209  ASN209     -0.1225
      2  CA       117.4220  117.3530   93.8740 C.3   209  ASN209      0.1785
      3  C        116.1200  117.5290   94.6530 C.2   209  ASN209      0.2597
      4  O        115.2420  118.2370   94.1990 O.2   209  ASN209     -0.2718
      5  CB       117.3240  116.0950   93.0310 C.3   209  ASN209      0.1169
      6  CG       116.3120  116.2170   91.9530 C.2   209  ASN209      0.2627
      7  OD1      115.2180  115.6950   92.0600 O.2   209  ASN209     -0.2716
      8  ND2      116.6640  116.9200   90.9020 N.am  209  ASN209     -0.0877
      9  N        115.9960  116.8830   95.8100 N.am  210  PHE210     -0.1976
     10  CA       114.7690  116.9260   96.5730 C.3   210  PHE210      0.1639
     11  C        114.6200  118.1740   97.4430 C.2   210  PHE210      0.2290
     12  O        113.4860  118.5980   97.6950 O.2   210  PHE210     -0.2864
     13  CB       114.5900  115.6320   97.3770 C.3   210  PHE210      0.0560
     14  CG       113.8490  114.5590   96.6350 C.ar  210  PHE210     -0.0200
     15  CD1      114.4250  113.9210   95.5540 C.ar  210  PHE210     -0.0042
     16  CD2      112.5640  114.2030   96.9910 C.ar  210  PHE210     -0.0042
     17  CE1      113.7310  112.9440   94.8540 C.ar  210  PHE210     -0.0003
     18  CE2      111.8670  113.2340   96.2760 C.ar  210  PHE210     -0.0003
     19  CZ       112.4450  112.6100   95.2240 C.ar  210  PHE210     -0.0000
     20  N        114.3480  121.3140   94.1730 N.3   213  ASP213     -0.1225
     21  CA       114.4430  121.3010   92.7220 C.3   213  ASP213      0.1805
     22  C        113.1290  120.8380   92.1260 C.2   213  ASP213      0.2597
     23  O        112.9280  119.6540   91.8620 O.2   213  ASP213     -0.2718
     24  CB       115.6200  120.4440   92.2340 C.3   213  ASP213      0.1424
     25  CG       116.2810  120.9970   90.9670 C.2   213  ASP213      0.3668
     26  OD1      115.6420  120.9850   89.9050 O.co2 213  ASP213     -0.2456
     27  OD2      117.4510  121.4350   90.9320 O.co2 213  ASP213     -0.2456
     28  N        112.2250  121.7990   91.9610 N.am  214  ALA214     -0.1979
     29  CA       110.9780  121.6230   91.2330 C.3   214  ALA214      0.1597
     30  C        111.1610  122.1690   89.8400 C.2   214  ALA214      0.2287
     31  O        110.4690  121.7570   88.9200 O.2   214  ALA214     -0.2864
     32  CB       109.8600  122.3500   91.9200 C.3   214  ALA214      0.0319
     33  N        113.4000  121.4870   87.7060 N.3   216  HIS216     -0.1226
     34  CA       113.8010  120.4320   86.7570 C.3   216  HIS216      0.1752
     35  C        112.6480  119.6470   86.1690 C.2   216  HIS216      0.2596
     36  O        112.7600  119.1100   85.0860 O.2   216  HIS216     -0.2718
     37  CB       114.8300  119.4820   87.3740 C.3   216  HIS216      0.0759
     38  CG       114.2380  118.3720   88.1890 C.ar  216  HIS216      0.0818
     39  ND1      113.6470  118.5800   89.4140 N.ar  216  HIS216     -0.2268
     40  CD2      114.1760  117.0390   87.9680 C.ar  216  HIS216      0.1154
     41  CE1      113.2340  117.4260   89.9030 C.ar  216  HIS216      0.1986
     42  NE2      113.5420  116.4750   89.0420 N.ar  216  HIS216     -0.2212
     43  N        111.5280  119.6050   86.8750 N.am  217  THR217     -0.1953
     44  CA       110.3370  118.9090   86.4010 C.3   217  THR217      0.1897
     45  C        110.0630  119.0490   84.9210 C.2   217  THR217      0.2313
     46  O        109.5690  118.1170   84.3170 O.2   217  THR217     -0.2863
     47  CB       109.1230  119.3740   87.1610 C.3   217  THR217      0.1794
     48  OG1      109.2360  118.9140   88.5040 O.3   217  THR217     -0.2208
     49  CG2      107.8930  118.6740   86.6550 C.3   217  THR217      0.0378
     50  N        111.7140  115.7420   83.2650 N.3   221  HIS221     -0.1241
     51  CA       110.4330  115.0260   83.2710 C.3   221  HIS221      0.1621
     52  C        109.4430  115.5580   82.2320 C.2   221  HIS221      0.2264
     53  O        108.2350  115.4950   82.4340 O.2   221  HIS221     -0.2867
     54  CB       109.8210  115.0200   84.6720 C.3   221  HIS221      0.0745
     55  CG       110.7700  114.5690   85.7350 C.ar  221  HIS221      0.0817
     56  ND1      111.2750  113.2920   85.7840 N.ar  221  HIS221     -0.2268
     57  CD2      111.3240  115.2300   86.7760 C.ar  221  HIS221      0.1154
     58  CE1      112.0980  113.1820   86.8100 C.ar  221  HIS221      0.1986
     59  NE2      112.1460  114.3450   87.4300 N.ar  221  HIS221     -0.2212
     60  N        102.6800  118.3990   85.7760 N.3   231  PRO231     -0.2116
     61  CA       102.0160  119.6850   85.5370 C.3   231  PRO231      0.1372
     62  C        102.4500  120.3460   84.2250 C.2   231  PRO231      0.2244
     63  O        103.6380  120.6170   84.0550 O.2   231  PRO231     -0.2868
     64  CB       102.4570  120.5210   86.7340 C.3   231  PRO231      0.0268
     65  CG       102.7490  119.5340   87.7860 C.3   231  PRO231      0.0207
     66  CD       103.3340  118.3550   87.0980 C.3   231  PRO231      0.0892
     67  N        104.2620  126.2270   87.1930 N.3   236  PHE236     -0.1241
     68  CA       103.4940  125.4840   88.1840 C.3   236  PHE236      0.1605
     69  C        104.1010  125.5700   89.5750 C.2   236  PHE236      0.2264
     70  O        103.3940  125.4380   90.5600 O.2   236  PHE236     -0.2867
     71  CB       103.2860  124.0270   87.7380 C.3   236  PHE236      0.0534
     72  CG       104.4070  123.0920   88.1120 C.ar  236  PHE236     -0.0203
     73  CD1      104.3110  122.2790   89.2390 C.ar  236  PHE236     -0.0042
     74  CD2      105.5400  122.9980   87.3300 C.ar  236  PHE236     -0.0042
     75  CE1      105.3290  121.4070   89.5860 C.ar  236  PHE236     -0.0003
     76  CE2      106.5580  122.1280   87.6720 C.ar  236  PHE236     -0.0003
     77  CZ       106.4480  121.3340   88.8070 C.ar  236  PHE236     -0.0000
     78  N        104.3010  122.7030   96.8010 N.3   254  ILE254     -0.1245
     79  CA       103.6140  123.2210   95.6190 C.3   254  ILE254      0.1561
     80  C        102.1480  122.8290   95.6950 C.2   254  ILE254      0.2260
     81  O        101.8260  121.6950   96.0140 O.2   254  ILE254     -0.2867
     82  CB       104.2550  122.6840   94.3000 C.3   254  ILE254      0.0252
     83  CG1      105.5570  123.3890   93.9880 C.3   254  ILE254      0.0019
     84  CG2      103.3590  122.8830   93.1060 C.3   254  ILE254      0.0019
     85  CD1      106.4040  122.6140   93.0530 C.3   254  ILE254      0.0001
     86  N        102.3230  118.8090   96.0150 N.3   293  PHE293     -0.1241
     87  CA       103.6520  118.1940   96.0420 C.3   293  PHE293      0.1605
     88  C        104.4510  118.7550   97.2070 C.2   293  PHE293      0.2264
     89  O        104.5550  119.9630   97.3520 O.2   293  PHE293     -0.2867
     90  CB       104.4300  118.4670   94.7470 C.3   293  PHE293      0.0534
     91  CG       103.6880  118.1180   93.4860 C.ar  293  PHE293     -0.0203
     92  CD1      103.1820  119.1110   92.6620 C.ar  293  PHE293     -0.0042
     93  CD2      103.5060  116.7990   93.1110 C.ar  293  PHE293     -0.0042
     94  CE1      102.4890  118.7920   91.4990 C.ar  293  PHE293     -0.0003
     95  CE2      102.8110  116.4710   91.9380 C.ar  293  PHE293     -0.0003
     96  CZ       102.3080  117.4680   91.1340 C.ar  293  PHE293     -0.0000
     97  N        108.3210  118.2010   98.6420 N.3   295  HIS295     -0.1241
     98  CA       109.6100  117.5510   98.3830 C.3   295  HIS295      0.1621
     99  C        110.6990  118.1630   99.2520 C.2   295  HIS295      0.2264
    100  O        110.8740  119.3690   99.2380 O.2   295  HIS295     -0.2867
    101  CB       109.9850  117.6880   96.9000 C.3   295  HIS295      0.0745
    102  CG       110.0820  119.1050   96.4130 C.ar  295  HIS295      0.0817
    103  ND1      111.1960  119.8900   96.6140 N.ar  295  HIS295     -0.2268
    104  CD2      109.2050  119.8740   95.7240 C.ar  295  HIS295      0.1154
    105  CE1      110.9940  121.0830   96.0840 C.ar  295  HIS295      0.1986
    106  NE2      109.7970  121.0980   95.5320 N.ar  295  HIS295     -0.2212
    107  N        103.7650  113.2800   96.8400 N.3   307  PHE307     -0.1241
    108  CA       103.3790  113.7850   95.5240 C.3   307  PHE307      0.1605
    109  C        101.9980  113.2840   95.1390 C.2   307  PHE307      0.2264
    110  O        101.6850  112.1090   95.3240 O.2   307  PHE307     -0.2867
    111  CB       104.3680  113.3420   94.4360 C.3   307  PHE307      0.0534
    112  CG       105.7960  113.7400   94.6740 C.ar  307  PHE307     -0.0203
    113  CD1      106.7900  112.7780   94.6810 C.ar  307  PHE307     -0.0042
    114  CD2      106.1630  115.0660   94.8370 C.ar  307  PHE307     -0.0042
    115  CE1      108.1160  113.1280   94.8800 C.ar  307  PHE307     -0.0003
    116  CE2      107.4880  115.4170   95.0340 C.ar  307  PHE307     -0.0003
    117  CZ       108.4600  114.4470   95.0550 C.ar  307  PHE307     -0.0000
    118  N        100.0200  112.3070   92.1060 N.3   309  MET309     -0.1245
    119  CA       100.4230  111.9080   90.7650 C.3   309  MET309      0.1570
    120  C         99.6310  110.7030   90.2930 C.2   309  MET309      0.2261
    121  O         99.0730  109.9830   91.1070 O.2   309  MET309     -0.2867
    122  CB       101.9010  111.5560   90.7760 C.3   309  MET309      0.0387
    123  CG       102.6990  112.1780   89.6800 C.3   309  MET309      0.0595
    124  SD       104.1770  112.9590   90.2920 S.3   309  MET309     -0.1393
    125  CE       104.8250  111.7120   91.1380 C.3   309  MET309      0.0692
    126  N        107.8250  107.0410   90.6450 N.3   362  PHE362     -0.1241
    127  CA       109.1120  107.0460   91.3360 C.3   362  PHE362      0.1605
    128  C        109.6350  105.6480   91.5960 C.2   362  PHE362      0.2264
    129  O        109.0230  104.6860   91.1990 O.2   362  PHE362     -0.2867
    130  CB       109.0920  107.9730   92.5740 C.3   362  PHE362      0.0534
    131  CG       109.2340  109.4270   92.2090 C.ar  362  PHE362     -0.0203
    132  CD1      108.2050  110.1090   91.5700 C.ar  362  PHE362     -0.0042
    133  CD2      110.4130  110.0910   92.4240 C.ar  362  PHE362     -0.0042
    134  CE1      108.3540  111.4170   91.1950 C.ar  362  PHE362     -0.0003
    135  CE2      110.5530  111.4010   92.0360 C.ar  362  PHE362     -0.0003
    136  CZ       109.5190  112.0550   91.4210 C.ar  362  PHE362     -0.0000
    137  N        109.3840  108.9170   86.1620 N.3   368  PHE368     -0.1241
    138  CA       110.0160  110.1240   86.6470 C.3   368  PHE368      0.1605
    139  C        111.4390  109.8150   87.1100 C.2   368  PHE368      0.2264
    140  O        112.3920  110.3110   86.5430 O.2   368  PHE368     -0.2867
    141  CB       109.2100  110.7130   87.8120 C.3   368  PHE368      0.0534
    142  CG       108.0270  111.5450   87.4060 C.ar  368  PHE368     -0.0203
    143  CD1      106.8120  110.9690   87.1790 C.ar  368  PHE368     -0.0042
    144  CD2      108.1210  112.9040   87.3090 C.ar  368  PHE368     -0.0042
    145  CE1      105.7060  111.7240   86.8270 C.ar  368  PHE368     -0.0003
    146  CE2      107.0240  113.6600   86.9660 C.ar  368  PHE368     -0.0003
    147  CZ       105.8150  113.0610   86.7270 C.ar  368  PHE368     -0.0000
    148  N        115.8320  110.7660   86.4350 N.3   372  ASP372     -0.1239
    149  CA       116.5620  111.4730   87.4610 C.3   372  ASP372      0.1674
    150  C        117.8660  110.7370   87.6380 C.2   372  ASP372      0.2266
    151  O        118.9000  111.3480   87.6710 O.2   372  ASP372     -0.2867
    152  CB       115.7650  111.4860   88.7580 C.3   372  ASP372      0.1410
    153  CG       114.6810  112.5630   88.7930 C.2   372  ASP372      0.3668
    154  OD1      114.7680  113.5740   88.0710 O.co2 372  ASP372     -0.2456
    155  OD2      113.7010  112.5070   89.5630 O.co2 372  ASP372     -0.2456
@<TRIPOS>BOND
     1    52    53    2
     2    52    51    1
     3    50    51    1
     4    51    54    1
     5    63    62    2
     6    62    61    1
     7    46    45    2
     8    54    55    1
     9    45    44    1
    10    36    35    2
    11    61    60    1
    12    61    64    1
    13    55    56   ar
    14    55    57   ar
    15    60    66    1
    16    56    58   ar
    17   137   138    1
    18    35    34    1
    19    35    43   am
    20    44    43    1
    21    44    47    1
    22   148   149    1
    23   140   139    2
    24   138   139    1
    25   138   141    1
    26    49    47    1
    27   147   145   ar
    28   147   146   ar
    29    64    65    1
    30    34    37    1
    31    34    33    1
    32    57    59   ar
    33    58    59   ar
    34   145   143   ar
    35   146   144   ar
    36    66    65    1
    37    47    48    1
    38   143   142   ar
    39    67    68    1
    40   144   142   ar
    41    74    76   ar
    42    74    72   ar
    43    37    38    1
    44   142   141    1
    45   149   150    1
    46   149   152    1
    47   150   151    2
    48    76    77   ar
    49    71    72    1
    50    71    68    1
    51    40    38   ar
    52    40    42   ar
    53   154   153   ar
    54    72    73   ar
    55    68    69    1
    56    38    39   ar
    57   152   153    1
    58   153   155   ar
    59    77    75   ar
    60    31    30    2
    61    42    41   ar
    62    73    75   ar
    63    39    41   ar
    64    69    70    2
    65   123   124    1
    66   123   122    1
    67    30    29    1
    68    26    25   ar
    69   124   125    1
    70   120   119    1
    71   120   121    2
    72   126   127    1
    73   119   122    1
    74   119   118    1
    75     8     6   am
    76    27    25   ar
    77    25    24    1
    78    96    94   ar
    79    96    95   ar
    80   134   136   ar
    81   134   132   ar
    82   129   128    2
    83    29    32    1
    84    29    28    1
    85   127   128    1
    86   127   130    1
    87   136   135   ar
    88    94    92   ar
    89   132   131   ar
    90    23    22    2
    91    95    93   ar
    92     6     7    2
    93     6     5    1
    94    28    22   am
    95   135   133   ar
    96    22    21    1
    97   131   133   ar
    98   131   130    1
    99    24    21    1
   100    92    91   ar
   101    21    20    1
   102     5     2    1
   103    85    83    1
   104    84    82    1
   105    93    91   ar
   106    91    90    1
   107     2     3    1
   108     2     1    1
   109    83    82    1
   110     4     3    2
   111    82    79    1
   112   111   112    1
   113   111   108    1
   114     3     9   am
   115   112   113   ar
   116   112   114   ar
   117   113   115   ar
   118    90    87    1
   119   114   116   ar
   120    17    19   ar
   121    17    15   ar
   122   115   117   ar
   123   116   117   ar
   124   109   110    2
   125   109   108    1
   126    19    18   ar
   127   108   107    1
   128   106   104   ar
   129   106   105   ar
   130    15    14   ar
   131    79    80    1
   132    79    78    1
   133    80    81    2
   134   104   102   ar
   135     9    10    1
   136    86    87    1
   137    87    88    1
   138   105   103   ar
   139    18    16   ar
   140   102   103   ar
   141   102   101    1
   142    10    13    1
   143    10    11    1
   144    14    16   ar
   145    14    13    1
   146   101    98    1
   147    88    89    2
   148    11    12    2
   149    98    97    1
   150    98    99    1
   151   100    99    2
