@<TRIPOS>MOLECULE
tmp/2b26A00.pdb
 128 122 0 0 0
SMALL
GASTEIGER

@<TRIPOS>ATOM
      1  N        123.4150   75.8310   22.3990 N.3     3  VAL3       -0.1245
      2  CA       123.7490   75.1600   21.1450 C.3     3  VAL3        0.1561
      3  C        122.5030   74.8330   20.3170 C.2     3  VAL3        0.2260
      4  O        121.4960   74.3660   20.8520 O.2     3  VAL3       -0.2867
      5  CB       124.5480   73.8550   21.4000 C.3     3  VAL3        0.0252
      6  CG1      125.9730   74.1930   21.7960 C.3     3  VAL3        0.0019
      7  CG2      123.8880   73.0410   22.4990 C.3     3  VAL3        0.0019
      8  N        120.0410   72.9010   17.7750 N.3     5  VAL5       -0.1231
      9  CA       119.6920   71.5250   17.4370 C.3     5  VAL5        0.1692
     10  C        118.4900   71.5810   16.5070 C.2     5  VAL5        0.2592
     11  O        117.5390   72.3230   16.7540 O.2     5  VAL5       -0.2718
     12  CB       119.3120   70.6990   18.6860 C.3     5  VAL5        0.0266
     13  CG1      118.8370   69.3230   18.2700 C.3     5  VAL5        0.0020
     14  CG2      120.5080   70.5670   19.6060 C.3     5  VAL5        0.0020
     15  N        118.5420   70.8000   15.4350 N.am    6  ASN6       -0.1960
     16  CA       117.4570   70.7640   14.4660 C.3     6  ASN6        0.1819
     17  C        116.4390   69.6950   14.8560 C.2     6  ASN6        0.2621
     18  O        116.8060   68.6160   15.3220 O.2     6  ASN6       -0.2715
     19  CB       118.0230   70.4710   13.0820 C.3     6  ASN6        0.1195
     20  CG       119.1850   71.3710   12.7370 C.2     6  ASN6        0.2630
     21  OD1      119.0160   72.5780   12.5460 O.2     6  ASN6       -0.2716
     22  ND2      120.3820   70.7900   12.6690 N.am    6  ASN6       -0.0877
     23  N        115.1590   69.9980   14.6650 N.am    7  LEU7       -0.1964
     24  CA       114.0970   69.0630   15.0110 C.3     7  LEU7        0.1713
     25  C        113.1040   68.8390   13.8780 C.2     7  LEU7        0.2458
     26  O        112.0900   69.5290   13.7810 O.2     7  LEU7       -0.2730
     27  CB       113.3470   69.5600   16.2460 C.3     7  LEU7        0.0310
     28  CG       113.7380   68.9800   17.6050 C.3     7  LEU7        0.0022
     29  CD1      115.2320   69.0630   17.8020 C.3     7  LEU7        0.0001
     30  CD2      112.9910   69.7320   18.7090 C.3     7  LEU7        0.0001
     31  N        113.3840   67.8660   13.0010 N.am    8  PRO8       -0.2727
     32  CA       112.4730   67.5860   11.8880 C.3     8  PRO8        0.1402
     33  C        111.0980   67.0840   12.3420 C.2     8  PRO8        0.2269
     34  O        110.9780   66.0200   12.9490 O.2     8  PRO8       -0.2865
     35  CB       113.2280   66.5290   11.0850 C.3     8  PRO8        0.0296
     36  CG       114.6600   66.8700   11.3450 C.3     8  PRO8        0.0237
     37  CD       114.6590   67.1490   12.8250 C.3     8  PRO8        0.0939
     38  N        100.8410   69.7370   17.2210 N.3    18  LYS18      -0.1245
     39  CA       100.9400   68.6160   18.1510 C.3    18  LYS18       0.1561
     40  C        102.0210   68.7970   19.2110 C.2    18  LYS18       0.2260
     41  O        103.0230   69.4810   18.9860 O.2    18  LYS18      -0.2867
     42  CB       101.1860   67.3240   17.3630 C.3    18  LYS18       0.0271
     43  CG       101.4280   66.0890   18.2020 C.3    18  LYS18       0.0035
     44  CD       101.5240   64.8710   17.3100 C.3    18  LYS18       0.0206
     45  CE       102.0450   63.6720   18.0700 C.3    18  LYS18       0.1093
     46  NZ       103.4610   63.8600   18.5130 N.3    18  LYS18      -0.1314
     47  N        104.5610   67.4250   20.0980 N.3    20  LYS20      -0.1231
     48  CA       105.6950   66.5760   19.7480 C.3    20  LYS20       0.1693
     49  C        106.6510   66.5370   20.9560 C.2    20  LYS20       0.2593
     50  O        106.9010   67.5660   21.5870 O.2    20  LYS20      -0.2718
     51  CB       106.3860   67.1620   18.5080 C.3    20  LYS20       0.0285
     52  CG       107.1460   66.1700   17.6260 C.3    20  LYS20       0.0035
     53  CD       106.2140   65.2010   16.8880 C.3    20  LYS20       0.0206
     54  CE       106.9120   64.4610   15.7070 C.3    20  LYS20       0.1093
     55  NZ       107.8420   63.3170   16.0310 N.3    20  LYS20      -0.1314
     56  N        107.1660   65.3530   21.2910 N.am   21  SER21      -0.1938
     57  CA       108.0910   65.2010   22.4260 C.3    21  SER21       0.2055
     58  C        109.1410   64.1080   22.2540 C.2    21  SER21       0.2643
     59  O        108.7900   62.9540   22.0530 O.2    21  SER21      -0.2714
     60  CB       107.3190   64.8980   23.7090 C.3    21  SER21       0.2130
     61  OG       108.1270   64.1380   24.6020 O.3    21  SER21      -0.2179
     62  N        110.4210   64.4630   22.3470 N.am   22  PHE22      -0.1959
     63  CA       111.4900   63.4700   22.2230 C.3    22  PHE22       0.1771
     64  C        112.6450   63.6040   23.2020 C.2    22  PHE22       0.2619
     65  O        112.8080   64.6270   23.8700 O.2    22  PHE22      -0.2715
     66  CB       112.0570   63.3760   20.7900 C.3    22  PHE22       0.0574
     67  CG       111.8700   64.6050   19.9390 C.ar   22  PHE22      -0.0200
     68  CD1      111.9470   64.4910   18.5500 C.ar   22  PHE22      -0.0042
     69  CD2      111.5920   65.8520   20.4870 C.ar   22  PHE22      -0.0042
     70  CE1      111.7420   65.5880   17.7220 C.ar   22  PHE22      -0.0003
     71  CE2      111.3840   66.9560   19.6620 C.ar   22  PHE22      -0.0003
     72  CZ       111.4590   66.8170   18.2760 C.ar   22  PHE22      -0.0000
     73  N        113.4330   62.5350   23.2870 N.am   23  LYS23      -0.1963
     74  CA       114.5810   62.4800   24.1780 C.3    23  LYS23       0.1728
     75  C        115.8640   62.7600   23.4040 C.2    23  LYS23       0.2616
     76  O        116.0500   62.2540   22.3000 O.2    23  LYS23      -0.2715
     77  CB       114.6530   61.1050   24.8620 C.3    23  LYS23       0.0311
     78  CG       113.4760   60.8300   25.8020 C.3    23  LYS23       0.0038
     79  CD       113.7430   59.7180   26.8260 C.3    23  LYS23       0.0206
     80  CE       113.5990   58.3090   26.2420 C.3    23  LYS23       0.1093
     81  NZ       114.6320   57.9610   25.2200 N.3    23  LYS23      -0.1314
     82  N        116.7410   63.5740   23.9890 N.am   24  ILE24      -0.1963
     83  CA       118.0140   63.9390   23.3650 C.3    24  ILE24       0.1727
     84  C        119.2110   63.6460   24.2710 C.2    24  ILE24       0.2616
     85  O        119.1160   63.7430   25.4960 O.2    24  ILE24      -0.2715
     86  CB       118.0260   65.4280   22.9880 C.3    24  ILE24       0.0290
     87  CG1      117.3860   66.2430   24.1140 C.3    24  ILE24       0.0022
     88  CG2      117.2950   65.6360   21.6700 C.3    24  ILE24       0.0023
     89  CD1      117.3310   67.7250   23.8520 C.3    24  ILE24       0.0001
     90  N        120.3390   63.3010   23.6540 N.am   25  GLY25      -0.1955
     91  CA       121.5350   62.9690   24.4100 C.3    25  GLY25       0.1869
     92  C        122.3850   64.1380   24.8670 C.2    25  GLY25       0.2309
     93  O        122.4500   65.1680   24.2050 O.2    25  GLY25      -0.2863
     94  N        120.3870   60.8680   28.1360 N.3    35  LYS35      -0.1245
     95  CA       119.3420   61.0450   27.1380 C.3    35  LYS35       0.1561
     96  C        118.1860   61.6500   27.9320 C.2    35  LYS35       0.2260
     97  O        117.5090   60.9480   28.6820 O.2    35  LYS35      -0.2867
     98  CB       118.9190   59.6960   26.5240 C.3    35  LYS35       0.0271
     99  CG       119.9280   59.0660   25.5480 C.3    35  LYS35       0.0035
    100  CD       119.3650   57.8140   24.8600 C.3    35  LYS35       0.0206
    101  CE       118.9790   56.7340   25.8730 C.3    35  LYS35       0.1093
    102  NZ       118.3620   55.5220   25.2520 N.3    35  LYS35      -0.1314
    103  N        114.5040   63.5440   28.2180 N.3    37  GLN37      -0.1245
    104  CA       113.2110   63.6970   27.5420 C.3    37  GLN37       0.1566
    105  C        112.7070   65.1420   27.5570 C.2    37  GLN37       0.2260
    106  O        112.4940   65.7240   28.6210 O.2    37  GLN37      -0.2867
    107  CB       112.1800   62.7710   28.2060 C.3    37  GLN37       0.0367
    108  CG       110.7770   62.7760   27.5970 C.3    37  GLN37       0.0905
    109  CD       109.9220   63.9400   28.0690 C.2    37  GLN37       0.2608
    110  OE1      109.8420   64.2210   29.2660 O.2    37  GLN37      -0.2717
    111  NE2      109.2650   64.6120   27.1290 N.am   37  GLN37      -0.0878
    112  N        120.1430   74.3410   25.3650 N.3    57  LEU57      -0.1245
    113  CA       119.9400   73.9770   23.9600 C.3    57  LEU57       0.1561
    114  C        118.9650   74.8910   23.2160 C.2    57  LEU57       0.2260
    115  O        117.9160   75.2530   23.7430 O.2    57  LEU57      -0.2867
    116  CB       119.4210   72.5380   23.8530 C.3    57  LEU57       0.0270
    117  CG       120.1720   71.3380   24.4520 C.3    57  LEU57       0.0019
    118  CD1      121.6250   71.3570   24.0080 C.3    57  LEU57       0.0001
    119  CD2      120.0760   71.3600   25.9690 C.3    57  LEU57       0.0001
    120  N        110.0530   68.1330    8.0270 N.3    64  LYS64      -0.1245
    121  CA       110.4310   66.8730    7.3700 C.3    64  LYS64       0.1561
    122  C        109.9200   66.9140    5.9340 C.2    64  LYS64       0.2260
    123  O        109.0140   67.6770    5.6180 O.2    64  LYS64      -0.2867
    124  CB       109.8140   65.6620    8.0810 C.3    64  LYS64       0.0271
    125  CG       110.4080   65.3410    9.4500 C.3    64  LYS64       0.0035
    126  CD       110.2230   63.8520    9.8270 C.3    64  LYS64       0.0206
    127  CE       108.7860   63.4830   10.2350 C.3    64  LYS64       0.1093
    128  NZ       108.4140   63.9300   11.6150 N.3    64  LYS64      -0.1314
@<TRIPOS>BOND
     1   123   122    2
     2   122   121    1
     3   121   120    1
     4   121   124    1
     5   124   125    1
     6   125   126    1
     7   126   127    1
     8   127   128    1
     9    35    36    1
    10    35    32    1
    11    36    37    1
    12    32    33    1
    13    32    31    1
    14    33    34    2
    15    21    20    2
    16    22    20   am
    17    20    19    1
    18    37    31    1
    19    31    25   am
    20    19    16    1
    21    26    25    2
    22    25    24    1
    23    16    17    1
    24    16    15    1
    25    23    17   am
    26    23    24    1
    27    17    18    2
    28    24    27    1
    29    15    10   am
    30    54    55    1
    31    54    53    1
    32    27    28    1
    33    10    11    2
    34    10     9    1
    35    53    52    1
    36    38    39    1
    37    44    45    1
    38    44    43    1
    39    42    39    1
    40    42    43    1
    41     9     8    1
    42     9    12    1
    43    28    29    1
    44    28    30    1
    45    52    51    1
    46    70    72   ar
    47    70    68   ar
    48    45    46    1
    49    39    40    1
    50    13    12    1
    51    72    71   ar
    52    51    48    1
    53    68    67   ar
    54    12    14    1
    55    41    40    2
    56    71    69   ar
    57    48    47    1
    58    48    49    1
    59    67    69   ar
    60    67    66    1
    61     3     4    2
    62     3     2    1
    63    66    63    1
    64    49    56   am
    65    49    50    2
    66     2     5    1
    67     2     1    1
    68    56    57    1
    69     5     6    1
    70     5     7    1
    71    88    86    1
    72    59    58    2
    73    63    62    1
    74    63    64    1
    75    58    62   am
    76    58    57    1
    77    76    75    2
    78    57    60    1
    79    86    83    1
    80    86    87    1
    81    64    73   am
    82    64    65    2
    83   114   115    2
    84   114   113    1
    85    73    74    1
    86    83    82    1
    87    83    84    1
    88    75    82   am
    89    75    74    1
    90    90    84   am
    91    90    91    1
    92    60    61    1
    93    89    87    1
    94   116   113    1
    95   116   117    1
    96   113   112    1
    97   118   117    1
    98    74    77    1
    99    93    92    2
   100    84    85    2
   101    91    92    1
   102   117   119    1
   103   100    99    1
   104   100   101    1
   105    77    78    1
   106    81    80    1
   107   102   101    1
   108    99    98    1
   109    78    79    1
   110    80    79    1
   111    98    95    1
   112   111   109   am
   113    95    96    1
   114    95    94    1
   115   104   105    1
   116   104   107    1
   117   104   103    1
   118   105   106    2
   119   108   109    1
   120   108   107    1
   121    96    97    2
   122   109   110    2
