@<TRIPOS>MOLECULE
tmp/2b2tA00.pdb
 161 155 0 0 0
SMALL
GASTEIGER

@<TRIPOS>ATOM
      1  N        -25.2730  -14.9650  -11.6670 N.3     4  GLU4       -0.1245
      2  CA       -24.9340  -13.6710  -12.2470 C.3     4  GLU4        0.1567
      3  C        -23.9030  -13.8950  -13.3480 C.2     4  GLU4        0.2260
      4  O        -23.3920  -15.0020  -13.5180 O.2     4  GLU4       -0.2867
      5  CB       -24.3970  -12.6730  -11.2200 C.3     4  GLU4        0.0388
      6  CG       -25.3830  -12.3280  -10.1150 C.3     4  GLU4        0.1160
      7  CD       -26.5900  -11.5680  -10.6280 C.2     4  GLU4        0.3649
      8  OE1      -26.4470  -10.8200  -11.6180 O.co2   4  GLU4       -0.2457
      9  OE2      -27.6820  -11.7180  -10.0400 O.co2   4  GLU4       -0.2457
     10  N        -21.2960   -7.7170   -1.7430 N.3    21  ALA21      -0.1245
     11  CA       -22.2310   -6.6010   -1.7060 C.3    21  ALA21       0.1562
     12  C        -21.7950   -5.4140   -0.8680 C.2    21  ALA21       0.2260
     13  O        -22.0890   -4.2650   -1.2120 O.2    21  ALA21      -0.2867
     14  CB       -23.5900   -7.0880   -1.2370 C.3    21  ALA21       0.0290
     15  N        -20.0420   -2.1980   -2.6700 N.3    24  THR24      -0.1218
     16  CA       -20.6140   -1.3100   -3.6810 C.3    24  THR24       0.1862
     17  C        -20.4910    0.1070   -3.1500 C.2    24  THR24       0.2287
     18  O        -20.3730    0.3100   -1.9410 O.2    24  THR24      -0.2866
     19  CB       -22.1090   -1.6030   -3.9590 C.3    24  THR24       0.1770
     20  OG1      -22.8340   -1.6360   -2.7280 O.3    24  THR24      -0.2211
     21  CG2      -22.2730   -2.9360   -4.6880 C.3    24  THR24       0.0375
     22  N        -22.6580    2.4360   -2.8030 N.3    26  TYR26      -0.1241
     23  CA       -23.6790    2.8260   -1.8520 C.3    26  TYR26       0.1605
     24  C        -23.5950    2.0980   -0.5210 C.2    26  TYR26       0.2264
     25  O        -24.0310    2.6240    0.4990 O.2    26  TYR26      -0.2867
     26  CB       -25.0650    2.6690   -2.4620 C.3    26  TYR26       0.0534
     27  CG       -25.3600    1.3160   -3.0510 C.ar   26  TYR26      -0.0201
     28  CD1      -25.9890    0.3240   -2.2980 C.ar   26  TYR26      -0.0009
     29  CD2      -25.0750    1.0500   -4.3810 C.ar   26  TYR26      -0.0009
     30  CE1      -26.3370   -0.8970   -2.8620 C.ar   26  TYR26       0.0417
     31  CE2      -25.4140   -0.1660   -4.9580 C.ar   26  TYR26       0.0417
     32  CZ       -26.0500   -1.1300   -4.1980 C.ar   26  TYR26       0.1957
     33  OH       -26.4310   -2.3090   -4.7890 O.3    26  TYR26      -0.2866
     34  N        -21.3550   -6.0650  -13.6780 N.3    53  TRP53      -0.1241
     35  CA       -22.2360   -7.1940  -13.9260 C.3    53  TRP53       0.1605
     36  C        -23.2550   -7.0050  -15.0460 C.2    53  TRP53       0.2264
     37  O        -23.8130   -5.9180  -15.2230 O.2    53  TRP53      -0.2867
     38  CB       -22.9670   -7.5380  -12.6290 C.3    53  TRP53       0.0550
     39  CG       -22.0470   -7.8510  -11.4950 C.ar   53  TRP53       0.0003
     40  CD1      -21.6890   -7.0240  -10.4740 C.ar   53  TRP53       0.0946
     41  CD2      -21.4230   -9.1110  -11.2330 C.ar   53  TRP53       0.0152
     42  NE1      -20.8850   -7.6940   -9.5780 N.ar   53  TRP53      -0.2442
     43  CE2      -20.7070   -8.9790  -10.0200 C.ar   53  TRP53       0.0810
     44  CE3      -21.4000  -10.3430  -11.9070 C.ar   53  TRP53       0.0012
     45  CZ2      -19.9770  -10.0330   -9.4600 C.ar   53  TRP53       0.0191
     46  CZ3      -20.6710  -11.3910  -11.3500 C.ar   53  TRP53       0.0001
     47  CH2      -19.9710  -11.2250  -10.1360 C.ar   53  TRP53       0.0015
     48  N        -26.5390   -6.7880  -16.7720 N.3    55  GLY55      -0.1210
     49  CA       -27.8650   -6.4740  -16.2740 C.3    55  GLY55       0.1956
     50  C        -27.9070   -5.5760  -15.0490 C.2    55  GLY55       0.2611
     51  O        -28.9720   -5.3880  -14.4730 O.2    55  GLY55      -0.2717
     52  N        -26.7680   -5.0370  -14.6290 N.am   56  TRP56      -0.1976
     53  CA       -26.7380   -4.1500  -13.4660 C.3    56  TRP56       0.1640
     54  C        -25.9420   -2.9280  -13.8430 C.2    56  TRP56       0.2290
     55  O        -24.9110   -3.0490  -14.4850 O.2    56  TRP56      -0.2864
     56  CB       -26.0510   -4.8110  -12.2600 C.3    56  TRP56       0.0576
     57  CG       -26.7420   -6.0150  -11.7310 C.ar   56  TRP56       0.0006
     58  CD1      -26.7220   -7.2740  -12.2590 C.ar   56  TRP56       0.0946
     59  CD2      -27.6050   -6.0720  -10.5840 C.ar   56  TRP56       0.0152
     60  NE1      -27.5260   -8.1120  -11.5120 N.ar   56  TRP56      -0.2442
     61  CE2      -28.0760   -7.3980  -10.4810 C.ar   56  TRP56       0.0810
     62  CE3      -28.0270   -5.1290   -9.6380 C.ar   56  TRP56       0.0012
     63  CZ2      -28.9470   -7.8040   -9.4740 C.ar   56  TRP56       0.0191
     64  CZ3      -28.8940   -5.5340   -8.6330 C.ar   56  TRP56       0.0001
     65  CH2      -29.3450   -6.8640   -8.5600 C.ar   56  TRP56       0.0015
     66  N        -23.7180   -0.8170   -9.0440 N.3    60  HIS60      -0.1241
     67  CA       -23.7590   -2.1330   -8.4450 C.3    60  HIS60       0.1621
     68  C        -22.4500   -2.8760   -8.6110 C.2    60  HIS60       0.2264
     69  O        -22.3810   -4.0680   -8.3210 O.2    60  HIS60      -0.2867
     70  CB       -24.8940   -2.9550   -9.0590 C.3    60  HIS60       0.0745
     71  CG       -26.2430   -2.3530   -8.8560 C.ar   60  HIS60       0.0817
     72  ND1      -26.9190   -2.4440   -7.6620 N.ar   60  HIS60      -0.2268
     73  CD2      -27.0050   -1.5790   -9.6630 C.ar   60  HIS60       0.1154
     74  CE1      -28.0390   -1.7460   -7.7380 C.ar   60  HIS60       0.1986
     75  NE2      -28.1150   -1.2100   -8.9430 N.ar   60  HIS60      -0.2212
     76  N        -19.0100   -4.5420   -7.8800 N.3    62  THR62      -0.1218
     77  CA       -18.4540   -5.0960   -6.6460 C.3    62  THR62       0.1862
     78  C        -17.0470   -5.6560   -6.8550 C.2    62  THR62       0.2287
     79  O        -16.7170   -6.1080   -7.9600 O.2    62  THR62      -0.2866
     80  CB       -19.3040   -6.2520   -6.1130 C.3    62  THR62       0.1770
     81  OG1      -19.2540   -7.3350   -7.0450 O.3    62  THR62      -0.2211
     82  CG2      -20.7240   -5.8240   -5.9030 C.3    62  THR62       0.0375
     83  N        -14.2940   -8.5140   -6.2110 N.3    64  GLU64      -0.1245
     84  CA       -14.3940   -9.9370   -5.9610 C.3    64  GLU64       0.1567
     85  C        -13.0140  -10.5590   -6.1230 C.2    64  GLU64       0.2260
     86  O        -12.1010   -9.9300   -6.6720 O.2    64  GLU64      -0.2867
     87  CB       -15.3500  -10.5670   -6.9800 C.3    64  GLU64       0.0388
     88  CG       -16.7450   -9.9330   -7.0570 C.3    64  GLU64       0.1160
     89  CD       -17.6950  -10.4390   -5.9810 C.2    64  GLU64       0.3649
     90  OE1      -17.3320  -11.4100   -5.2770 O.co2  64  GLU64      -0.2457
     91  OE2      -18.8060   -9.8690   -5.8470 O.co2  64  GLU64      -0.2457
     92  N        -19.5800  -18.1970   -6.1880 N.3    72  GLN72      -0.1245
     93  CA       -20.8980  -17.7120   -6.5950 C.3    72  GLN72       0.1566
     94  C        -21.2990  -18.3380   -7.9280 C.2    72  GLN72       0.2260
     95  O        -22.3790  -18.0850   -8.4480 O.2    72  GLN72      -0.2867
     96  CB       -20.8750  -16.1860   -6.7300 C.3    72  GLN72       0.0367
     97  CG       -20.9470  -15.4080   -5.4120 C.3    72  GLN72       0.0905
     98  CD       -20.3340  -14.0050   -5.5180 C.2    72  GLN72       0.2608
     99  OE1      -20.5820  -13.2710   -6.4790 O.2    72  GLN72      -0.2717
    100  NE2      -19.5360  -13.6310   -4.5240 N.am   72  GLN72      -0.0878
    101  N        -39.6830    3.6680   -8.0560 N.3   138  ASP138     -0.1239
    102  CA       -38.3670    3.3830   -8.5970 C.3   138  ASP138      0.1674
    103  C        -38.0910    4.4640   -9.6210 C.2   138  ASP138      0.2266
    104  O        -39.0240    5.0610  -10.1640 O.2   138  ASP138     -0.2867
    105  CB       -38.3180    1.9830   -9.2180 C.3   138  ASP138      0.1410
    106  CG       -38.4550    0.8830   -8.1680 C.2   138  ASP138      0.3668
    107  OD1      -38.2250    1.1720   -6.9620 O.co2 138  ASP138     -0.2456
    108  OD2      -38.7840   -0.2660   -8.5430 O.co2 138  ASP138     -0.2456
    109  N        -33.7240    1.2230  -14.4660 N.3   153  TRP153     -0.1227
    110  CA       -34.6390    1.4550  -13.3640 C.3   153  TRP153      0.1737
    111  C        -33.8600    1.1700  -12.0810 C.2   153  TRP153      0.2595
    112  O        -33.0540    0.2370  -12.0210 O.2   153  TRP153     -0.2718
    113  CB       -35.8710    0.5510  -13.4970 C.3   153  TRP153      0.0564
    114  CG       -36.8010    1.0250  -14.5810 C.ar  153  TRP153      0.0003
    115  CD1      -36.8070    0.6390  -15.9000 C.ar  153  TRP153      0.0946
    116  CD2      -37.8040    2.0460  -14.4610 C.ar  153  TRP153      0.0152
    117  NE1      -37.7450    1.3590  -16.6020 N.ar  153  TRP153     -0.2442
    118  CE2      -38.3720    2.2280  -15.7460 C.ar  153  TRP153      0.0810
    119  CE3      -38.2770    2.8300  -13.3910 C.ar  153  TRP153      0.0012
    120  CZ2      -39.3880    3.1590  -15.9910 C.ar  153  TRP153      0.0191
    121  CZ3      -39.2910    3.7590  -13.6370 C.ar  153  TRP153      0.0001
    122  CH2      -39.8340    3.9120  -14.9290 C.ar  153  TRP153      0.0015
    123  N        -34.0790    1.9930  -11.0620 N.am  154  GLU154     -0.1965
    124  CA       -33.3610    1.8310   -9.8170 C.3   154  GLU154      0.1733
    125  C        -34.2040    2.0630   -8.6110 C.2   154  GLU154      0.2616
    126  O        -35.1150    2.8790   -8.6160 O.2   154  GLU154     -0.2715
    127  CB       -32.1770    2.7740   -9.7580 C.3   154  GLU154      0.0429
    128  CG       -31.1700    2.5780  -10.8730 C.3   154  GLU154      0.1163
    129  CD       -30.3000    1.3430  -10.7040 C.2   154  GLU154      0.3649
    130  OE1      -29.4940    1.0570  -11.6120 O.co2 154  GLU154     -0.2457
    131  OE2      -30.4030    0.6560   -9.6650 O.co2 154  GLU154     -0.2457
    132  N        -33.8780    1.3220   -7.5600 N.am  155  ASP155     -0.1971
    133  CA       -34.5520    1.4600   -6.2820 C.3   155  ASP155      0.1709
    134  C        -34.5560    2.9240   -5.8890 C.2   155  ASP155      0.2293
    135  O        -33.5310    3.5830   -5.9310 O.2   155  ASP155     -0.2864
    136  CB       -33.8260    0.6320   -5.2320 C.3   155  ASP155      0.1436
    137  CG       -34.5370    0.6310   -3.9180 C.2   155  ASP155      0.3671
    138  OD1      -34.3690   -0.3400   -3.1600 O.co2 155  ASP155     -0.2456
    139  OD2      -35.2660    1.5990   -3.6280 O.co2 155  ASP155     -0.2456
    140  N        -35.2160    4.2680   -2.8880 N.3   157  ALA157     -0.1231
    141  CA       -34.5960    4.4920   -1.5860 C.3   157  ALA157      0.1694
    142  C        -33.0880    4.5380   -1.7890 C.2   157  ALA157      0.2591
    143  O        -32.3790    5.2180   -1.0390 O.2   157  ALA157     -0.2718
    144  CB       -34.9670    3.3650   -0.6110 C.3   157  ALA157      0.0304
    145  N        -32.6160    3.8470   -2.8250 N.am  158  LEU158     -0.1980
    146  CA       -31.2020    3.8120   -3.1260 C.3   158  LEU158      0.1596
    147  C        -30.6590    5.1400   -3.6190 C.2   158  LEU158      0.2287
    148  O        -29.7780    5.7250   -2.9820 O.2   158  LEU158     -0.2864
    149  CB       -30.8930    2.7310   -4.1670 C.3   158  LEU158      0.0297
    150  CG       -29.4130    2.4480   -4.5030 C.3   158  LEU158      0.0022
    151  CD1      -28.8130    3.5130   -5.3870 C.3   158  LEU158      0.0001
    152  CD2      -28.6340    2.3480   -3.2160 C.3   158  LEU158      0.0001
    153  N        -30.6420    8.3850   -1.2840 N.3   161  LYS161     -0.1245
    154  CA       -29.5500    8.5700   -0.3320 C.3   161  LYS161      0.1561
    155  C        -28.4050    9.4040   -0.8810 C.2   161  LYS161      0.2260
    156  O        -27.6080    9.9260   -0.1090 O.2   161  LYS161     -0.2867
    157  CB       -28.9880    7.2200    0.1320 C.3   161  LYS161      0.0271
    158  CG       -29.9670    6.3660    0.9270 C.3   161  LYS161      0.0035
    159  CD       -29.3100    5.0850    1.4420 C.3   161  LYS161      0.0206
    160  CE       -28.8660    4.1430    0.2970 C.3   161  LYS161      0.1093
    161  NZ       -28.2730    2.8420    0.7710 N.3   161  LYS161     -0.1314
@<TRIPOS>BOND
     1    48    49    1
     2   117   115   ar
     3   117   118   ar
     4    49    50    1
     5   120   118   ar
     6   120   122   ar
     7   115   114   ar
     8   118   116   ar
     9    37    36    2
    10    50    52   am
    11    50    51    2
    12    36    35    1
    13   122   121   ar
    14    52    53    1
    15   114   116   ar
    16   114   113    1
    17    55    54    2
    18   109   110    1
    19   116   119   ar
    20    35    34    1
    21    35    38    1
    22    54    53    1
    23   121   119   ar
    24     4     3    2
    25   113   110    1
    26    53    56    1
    27   110   111    1
    28     3     2    1
    29    38    39    1
    30    56    57    1
    31    58    57   ar
    32    58    60   ar
    33     2     1    1
    34     2     5    1
    35   111   112    2
    36   111   123   am
    37    44    46   ar
    38    44    41   ar
    39    57    59   ar
    40     8     7   ar
    41   130   129   ar
    42    60    61   ar
    43    39    41   ar
    44    39    40   ar
    45    46    47   ar
    46    41    43   ar
    47     5     6    1
    48   123   124    1
    49   128   129    1
    50   128   127    1
    51   129   131   ar
    52     7     6    1
    53     7     9   ar
    54    59    61   ar
    55    59    62   ar
    56    61    63   ar
    57    40    42   ar
    58   104   103    2
    59    47    45   ar
    60    43    42   ar
    61    43    45   ar
    62   124   127    1
    63   124   125    1
    64    73    75   ar
    65    73    71   ar
    66    62    64   ar
    67   103   102    1
    68    63    65   ar
    69   105   102    1
    70   105   106    1
    71    70    71    1
    72    70    67    1
    73    66    67    1
    74    75    74   ar
    75    71    72   ar
    76    64    65   ar
    77   126   125    2
    78    68    67    1
    79    68    69    2
    80   125   132   am
    81   102   101    1
    82   108   106   ar
    83    95    94    2
    84   106   107   ar
    85    79    78    2
    86    94    93    1
    87    76    77    1
    88    74    72   ar
    89   132   133    1
    90    88    87    1
    91    88    89    1
    92    81    80    1
    93    87    84    1
    94    78    77    1
    95    96    93    1
    96    96    97    1
    97    86    85    2
    98    77    80    1
    99    93    92    1
   100    99    98    2
   101   133   134    1
   102   133   136    1
   103    83    84    1
   104    85    84    1
   105    80    82    1
   106    89    91   ar
   107    89    90   ar
   108   135   134    2
   109    98    97    1
   110    98   100   am
   111   151   150    1
   112   136   137    1
   113    31    29   ar
   114    31    32   ar
   115    33    32    1
   116    21    19    1
   117   150   149    1
   118   150   152    1
   119    29    27   ar
   120    32    30   ar
   121   149   146    1
   122    19    16    1
   123    19    20    1
   124   137   139   ar
   125   137   138   ar
   126    16    17    1
   127    16    15    1
   128   147   146    1
   129   147   148    2
   130    17    18    2
   131   146   145    1
   132    27    26    1
   133    27    28   ar
   134   140   141    1
   135    30    28   ar
   136   145   142   am
   137    22    23    1
   138    26    23    1
   139    23    24    1
   140   142   141    1
   141   142   143    2
   142    10    11    1
   143    11    14    1
   144    11    12    1
   145   141   144    1
   146   153   154    1
   147    13    12    2
   148   155   154    1
   149   155   156    2
   150    24    25    2
   151   154   157    1
   152   157   158    1
   153   160   161    1
   154   160   159    1
   155   158   159    1
