@<TRIPOS>MOLECULE
tmp/2b2vA00.pdb
 181 176 0 0 0
SMALL
GASTEIGER

@<TRIPOS>ATOM
      1  N        -25.5330  -15.0740  -11.5830 N.3     3  GLU3       -0.1245
      2  CA       -25.0280  -13.8160  -12.1790 C.3     3  GLU3        0.1567
      3  C        -23.8920  -14.0200  -13.1870 C.2     3  GLU3        0.2260
      4  O        -23.2790  -15.0800  -13.2340 O.2     3  GLU3       -0.2867
      5  CB       -24.5570  -12.8550  -11.0780 C.3     3  GLU3        0.0388
      6  CG       -25.5620  -12.6040   -9.9580 C.3     3  GLU3        0.1160
      7  CD       -26.5900  -11.5600  -10.3250 C.2     3  GLU3        0.3649
      8  OE1      -27.0370  -11.5720  -11.4830 O.co2   3  GLU3       -0.2457
      9  OE2      -26.9520  -10.7280   -9.4610 O.co2   3  GLU3       -0.2457
     10  N        -21.0310   -7.6080   -1.5360 N.3    21  ALA21      -0.1231
     11  CA       -22.0520   -6.5810   -1.4100 C.3    21  ALA21       0.1694
     12  C        -21.6050   -5.3790   -0.5920 C.2    21  ALA21       0.2592
     13  O        -21.8550   -4.2300   -0.9420 O.2    21  ALA21      -0.2718
     14  CB       -23.2760   -7.1870   -0.7810 C.3    21  ALA21       0.0304
     15  N        -20.9550   -5.6560    0.5160 N.am   22  THR22      -0.1953
     16  CA       -20.3920   -4.6150    1.3570 C.3    22  THR22       0.1897
     17  C        -19.4840   -3.6530    0.5800 C.2    22  THR22       0.2313
     18  O        -19.1010   -2.5840    1.1090 O.2    22  THR22      -0.2863
     19  CB       -19.5590   -5.2700    2.4610 C.3    22  THR22       0.1794
     20  OG1      -18.4940   -6.0280    1.8580 O.3    22  THR22      -0.2208
     21  CG2      -20.4280   -6.2090    3.3250 C.3    22  THR22       0.0378
     22  N        -19.9420   -2.0710   -2.5150 N.3    24  THR24      -0.1218
     23  CA       -20.5280   -1.1580   -3.5020 C.3    24  THR24       0.1862
     24  C        -20.4550    0.2900   -3.0110 C.2    24  THR24       0.2287
     25  O        -20.2250    0.4920   -1.8160 O.2    24  THR24      -0.2866
     26  CB       -21.9700   -1.5290   -3.7510 C.3    24  THR24       0.1770
     27  OG1      -22.6440   -1.7160   -2.5030 O.3    24  THR24      -0.2211
     28  CG2      -22.0450   -2.8330   -4.5360 C.3    24  THR24       0.0375
     29  N        -22.8160    2.4500   -2.7440 N.3    26  TYR26      -0.1227
     30  CA       -23.9200    2.7370   -1.8570 C.3    26  TYR26       0.1736
     31  C        -23.7110    2.0330   -0.5000 C.2    26  TYR26       0.2595
     32  O        -23.8090    2.6670    0.5490 O.2    26  TYR26      -0.2718
     33  CB       -25.3010    2.4940   -2.5070 C.3    26  TYR26       0.0548
     34  CG       -25.5730    1.1270   -3.1210 C.ar   26  TYR26      -0.0200
     35  CD1      -26.1940    0.1390   -2.3960 C.ar   26  TYR26      -0.0009
     36  CD2      -25.2930    0.8680   -4.4580 C.ar   26  TYR26      -0.0009
     37  CE1      -26.4660   -1.0960   -2.9610 C.ar   26  TYR26       0.0417
     38  CE2      -25.5710   -0.3380   -5.0210 C.ar   26  TYR26       0.0417
     39  CZ       -26.1600   -1.3280   -4.2660 C.ar   26  TYR26       0.1957
     40  OH       -26.4440   -2.5610   -4.8110 O.3    26  TYR26      -0.2866
     41  N        -23.3560    0.7570   -0.5150 N.am   27  ALA27      -0.1980
     42  CA       -23.0370    0.0650    0.7360 C.3    27  ALA27       0.1597
     43  C        -21.9530    0.7820    1.5100 C.2    27  ALA27       0.2287
     44  O        -21.9080    0.7150    2.7300 O.2    27  ALA27      -0.2864
     45  CB       -22.5950   -1.3800    0.4730 C.3    27  ALA27       0.0319
     46  N        -22.9650    4.2360    3.0570 N.3    30  ALA30      -0.1231
     47  CA       -23.8880    3.9810    4.1680 C.3    30  ALA30       0.1694
     48  C        -23.2210    3.4240    5.4020 C.2    30  ALA30       0.2592
     49  O        -23.7240    3.5830    6.5220 O.2    30  ALA30      -0.2718
     50  CB       -24.9340    3.0060    3.7420 C.3    30  ALA30       0.0304
     51  N        -22.1020    2.7460    5.1940 N.am   31  ASP31      -0.1974
     52  CA       -21.5700    1.8470    6.2220 C.3    31  ASP31       0.1709
     53  C        -20.0610    1.8560    6.3510 C.2    31  ASP31       0.2293
     54  O        -19.5470    1.4730    7.3830 O.2    31  ASP31      -0.2864
     55  CB       -21.9980    0.4120    5.9230 C.3    31  ASP31       0.1436
     56  CG       -23.4820    0.2230    5.9840 C.2    31  ASP31       0.3671
     57  OD1      -24.1030    0.7380    6.9360 O.co2  31  ASP31      -0.2456
     58  OD2      -24.0330   -0.4680    5.0980 O.co2  31  ASP31      -0.2456
     59  N        -21.3810   -6.2660  -13.6620 N.3    53  TRP53      -0.1227
     60  CA       -22.2900   -7.4040  -13.8130 C.3    53  TRP53       0.1737
     61  C        -23.3630   -7.2370  -14.9150 C.2    53  TRP53       0.2595
     62  O        -23.9120   -6.1440  -15.1060 O.2    53  TRP53      -0.2718
     63  CB       -23.0170   -7.5900  -12.4810 C.3    53  TRP53       0.0564
     64  CG       -22.1250   -7.8650  -11.3120 C.ar   53  TRP53       0.0003
     65  CD1      -21.8140   -7.0190  -10.2780 C.ar   53  TRP53       0.0946
     66  CD2      -21.4640   -9.0910  -11.0330 C.ar   53  TRP53       0.0152
     67  NE1      -20.9940   -7.6500   -9.3800 N.ar   53  TRP53      -0.2442
     68  CE2      -20.7680   -8.9260   -9.8200 C.ar   53  TRP53       0.0810
     69  CE3      -21.3730  -10.3160  -11.7040 C.ar   53  TRP53       0.0012
     70  CZ2      -19.9950   -9.9370   -9.2730 C.ar   53  TRP53       0.0191
     71  CZ3      -20.5990  -11.2920  -11.1640 C.ar   53  TRP53       0.0001
     72  CH2      -19.9220  -11.1020   -9.9580 C.ar   53  TRP53       0.0015
     73  N        -23.6640   -8.3420  -15.5910 N.am   54  LYS54      -0.1966
     74  CA       -24.6990   -8.4050  -16.6100 C.3    54  LYS54       0.1728
     75  C        -26.0690   -8.0120  -16.0660 C.2    54  LYS54       0.2617
     76  O        -26.5810   -8.6150  -15.1340 O.2    54  LYS54      -0.2715
     77  CB       -24.7820   -9.8360  -17.1510 C.3    54  LYS54       0.0311
     78  CG       -24.8870   -9.9540  -18.6380 C.3    54  LYS54       0.0038
     79  CD       -25.4160  -11.3240  -19.0520 C.3    54  LYS54       0.0206
     80  CE       -26.0620  -11.2600  -20.4250 C.3    54  LYS54       0.1093
     81  NZ       -25.0580  -11.0100  -21.5020 N.3    54  LYS54      -0.1314
     82  N        -26.6640   -6.9870  -16.6560 N.am   55  GLY55      -0.1940
     83  CA       -28.0020   -6.5340  -16.2510 C.3    55  GLY55       0.2014
     84  C        -28.0730   -5.7110  -14.9820 C.2    55  GLY55       0.2638
     85  O        -29.1460   -5.5660  -14.4120 O.2    55  GLY55      -0.2714
     86  N        -26.9410   -5.1750  -14.5400 N.am   56  TRP56      -0.1973
     87  CA       -26.8930   -4.3860  -13.2980 C.3    56  TRP56       0.1640
     88  C        -26.0870   -3.1110  -13.5610 C.2    56  TRP56       0.2290
     89  O        -24.9990   -3.1680  -14.1030 O.2    56  TRP56      -0.2864
     90  CB       -26.1580   -5.1190  -12.1810 C.3    56  TRP56       0.0576
     91  CG       -26.8430   -6.2100  -11.4110 C.ar   56  TRP56       0.0006
     92  CD1      -26.8860   -7.5360  -11.7240 C.ar   56  TRP56       0.0946
     93  CD2      -27.4390   -6.0870  -10.1150 C.ar   56  TRP56       0.0152
     94  NE1      -27.5340   -8.2460  -10.7250 N.ar   56  TRP56      -0.2442
     95  CE2      -27.8850   -7.3770   -9.7310 C.ar   56  TRP56       0.0810
     96  CE3      -27.6790   -4.9990   -9.2580 C.ar   56  TRP56       0.0012
     97  CZ2      -28.5450   -7.6090   -8.5400 C.ar   56  TRP56       0.0191
     98  CZ3      -28.3400   -5.2240   -8.0740 C.ar   56  TRP56       0.0001
     99  CH2      -28.7770   -6.5300   -7.7240 C.ar   56  TRP56       0.0015
    100  N        -23.8760   -0.8450   -8.9920 N.3    60  HIS60      -0.1241
    101  CA       -23.8340   -2.0870   -8.2570 C.3    60  HIS60       0.1621
    102  C        -22.5620   -2.9170   -8.4080 C.2    60  HIS60       0.2264
    103  O        -22.6010   -4.1130   -8.1260 O.2    60  HIS60      -0.2867
    104  CB       -24.9420   -2.9680   -8.7490 C.3    60  HIS60       0.0745
    105  CG       -26.3040   -2.3670   -8.6590 C.ar   60  HIS60       0.0817
    106  ND1      -26.8970   -2.0400   -7.4590 N.ar   60  HIS60      -0.2268
    107  CD2      -27.2320   -2.1500   -9.6150 C.ar   60  HIS60       0.1154
    108  CE1      -28.1160   -1.5940   -7.6900 C.ar   60  HIS60       0.1986
    109  NE2      -28.3470   -1.6610   -8.9900 N.ar   60  HIS60      -0.2212
    110  N        -19.0270   -4.7510   -7.7780 N.3    62  THR62      -0.1218
    111  CA       -18.4190   -5.2720   -6.5710 C.3    62  THR62       0.1862
    112  C        -17.0060   -5.7350   -6.8140 C.2    62  THR62       0.2287
    113  O        -16.6350   -6.1300   -7.9260 O.2    62  THR62      -0.2866
    114  CB       -19.1550   -6.4530   -6.0650 C.3    62  THR62       0.1770
    115  OG1      -19.2990   -7.3730   -7.1480 O.3    62  THR62      -0.2211
    116  CG2      -20.5130   -6.0170   -5.5390 C.3    62  THR62       0.0375
    117  N        -14.2710   -8.4320   -6.2060 N.3    64  GLU64      -0.1245
    118  CA       -14.3580   -9.8560   -6.0380 C.3    64  GLU64       0.1567
    119  C        -13.0160  -10.5140   -6.3370 C.2    64  GLU64       0.2260
    120  O        -12.2820  -10.0500   -7.1830 O.2    64  GLU64      -0.2867
    121  CB       -15.3970  -10.3750   -6.9970 C.3    64  GLU64       0.0388
    122  CG       -16.7370   -9.6790   -6.8850 C.3    64  GLU64       0.1160
    123  CD       -17.6760  -10.3950   -5.9390 C.2    64  GLU64       0.3649
    124  OE1      -17.3130  -11.5150   -5.4680 O.co2  64  GLU64      -0.2457
    125  OE2      -18.7740   -9.8290   -5.6860 O.co2  64  GLU64      -0.2457
    126  N        -39.6770    3.6040   -8.0270 N.3   139  ASP139     -0.1239
    127  CA       -38.3630    3.2750   -8.5770 C.3   139  ASP139      0.1674
    128  C        -38.1140    4.2850   -9.6360 C.2   139  ASP139      0.2266
    129  O        -39.0530    4.8410  -10.1660 O.2   139  ASP139     -0.2867
    130  CB       -38.3400    1.8400   -9.1380 C.3   139  ASP139      0.1410
    131  CG       -38.4920    0.8300   -8.0580 C.2   139  ASP139      0.3668
    132  OD1      -38.5570    1.2530   -6.8880 O.co2 139  ASP139     -0.2456
    133  OD2      -38.5550   -0.3770   -8.3190 O.co2 139  ASP139     -0.2456
    134  N        -33.6370    0.9690  -14.2280 N.3   154  TRP154     -0.1227
    135  CA       -34.5880    1.2790  -13.1550 C.3   154  TRP154      0.1737
    136  C        -33.8990    1.0490  -11.8570 C.2   154  TRP154      0.2595
    137  O        -33.4840   -0.0680  -11.5590 O.2   154  TRP154     -0.2718
    138  CB       -35.8450    0.3980  -13.2090 C.3   154  TRP154      0.0564
    139  CG       -36.7940    0.8570  -14.2490 C.ar  154  TRP154      0.0003
    140  CD1      -36.8910    0.4000  -15.5200 C.ar  154  TRP154      0.0946
    141  CD2      -37.7640    1.9090  -14.1230 C.ar  154  TRP154      0.0152
    142  NE1      -37.8550    1.0950  -16.1950 N.ar  154  TRP154     -0.2442
    143  CE2      -38.4030    2.0320  -15.3590 C.ar  154  TRP154      0.0810
    144  CE3      -38.1360    2.7670  -13.0850 C.ar  154  TRP154      0.0012
    145  CZ2      -39.4040    2.9590  -15.5860 C.ar  154  TRP154      0.0191
    146  CZ3      -39.1230    3.7020  -13.3180 C.ar  154  TRP154      0.0001
    147  CH2      -39.7530    3.7840  -14.5510 C.ar  154  TRP154      0.0015
    148  N        -33.7650    2.1020  -11.0700 N.am  155  GLU155     -0.1965
    149  CA       -33.0710    1.9210   -9.8310 C.3   155  GLU155      0.1733
    150  C        -34.0300    2.0010   -8.6630 C.2   155  GLU155      0.2616
    151  O        -35.0230    2.7130   -8.7410 O.2   155  GLU155     -0.2715
    152  CB       -31.9310    2.9100   -9.7510 C.3   155  GLU155      0.0429
    153  CG       -30.8390    2.5580  -10.7590 C.3   155  GLU155      0.1163
    154  CD       -30.2330    1.1420  -10.5360 C.2   155  GLU155      0.3649
    155  OE1      -29.4370    0.6700  -11.3900 O.co2 155  GLU155     -0.2457
    156  OE2      -30.5390    0.5130   -9.4950 O.co2 155  GLU155     -0.2457
    157  N        -33.7700    1.2110   -7.6180 N.am  156  ASP156     -0.1971
    158  CA       -34.5740    1.2700   -6.3880 C.3   156  ASP156      0.1709
    159  C        -34.6910    2.7020   -5.8580 C.2   156  ASP156      0.2293
    160  O        -33.6890    3.3990   -5.6960 O.2   156  ASP156     -0.2864
    161  CB       -33.9780    0.3860   -5.3050 C.3   156  ASP156      0.1436
    162  CG       -34.6100    0.6410   -3.9490 C.2   156  ASP156      0.3671
    163  OD1      -34.0320    0.2400   -2.9170 O.co2 156  ASP156     -0.2456
    164  OD2      -35.6940    1.2580   -3.9140 O.co2 156  ASP156     -0.2456
    165  N        -32.6500    3.6030   -2.7250 N.3   159  LEU159     -0.1245
    166  CA       -31.2350    3.5600   -3.0500 C.3   159  LEU159      0.1561
    167  C        -30.7560    4.9260   -3.5400 C.2   159  LEU159      0.2260
    168  O        -29.9280    5.5820   -2.9090 O.2   159  LEU159     -0.2867
    169  CB       -31.0400    2.4950   -4.1070 C.3   159  LEU159      0.0270
    170  CG       -29.6390    1.9720   -4.3910 C.3   159  LEU159      0.0019
    171  CD1      -28.8580    3.0200   -5.1640 C.3   159  LEU159      0.0001
    172  CD2      -28.9380    1.5960   -3.1040 C.3   159  LEU159      0.0001
    173  N        -31.0700    8.3240   -1.2710 N.3   162  LYS162     -0.1245
    174  CA       -29.9340    8.4770   -0.3630 C.3   162  LYS162      0.1561
    175  C        -28.8160    9.3610   -0.9570 C.2   162  LYS162      0.2260
    176  O        -28.0710    9.9750   -0.2200 O.2   162  LYS162     -0.2867
    177  CB       -29.3370    7.1090    0.0540 C.3   162  LYS162      0.0271
    178  CG       -30.1780    6.2600    1.0550 C.3   162  LYS162      0.0035
    179  CD       -29.3250    5.0520    1.6250 C.3   162  LYS162      0.0206
    180  CE       -30.0330    3.6290    1.5350 C.3   162  LYS162      0.1093
    181  NZ       -29.0810    2.4180    1.4750 N.3   162  LYS162     -0.1314
@<TRIPOS>BOND
     1    81    80    1
     2    80    79    1
     3    79    78    1
     4    78    77    1
     5    77    74    1
     6    82    83    1
     7    82    75   am
     8    74    75    1
     9    74    73    1
    10    83    84    1
    11   142   140   ar
    12   142   143   ar
    13    75    76    2
    14    73    61   am
    15   145   143   ar
    16   145   147   ar
    17   140   139   ar
    18   143   141   ar
    19    62    61    2
    20    84    86   am
    21    84    85    2
    22    61    60    1
    23   147   146   ar
    24    86    87    1
    25   139   141   ar
    26   139   138    1
    27   134   135    1
    28   141   144   ar
    29    89    88    2
    30    60    59    1
    31    60    63    1
    32    88    87    1
    33   146   144   ar
    34    87    90    1
    35     4     3    2
    36   138   135    1
    37     3     2    1
    38   135   136    1
    39    63    64    1
    40    90    91    1
    41     2     1    1
    42     2     5    1
    43   136   137    2
    44   136   148   am
    45    92    91   ar
    46    92    94   ar
    47    69    71   ar
    48    69    66   ar
    49     8     7   ar
    50    91    93   ar
    51   155   154   ar
    52    64    66   ar
    53    64    65   ar
    54    71    72   ar
    55     5     6    1
    56   148   149    1
    57    66    68   ar
    58   153   154    1
    59   153   152    1
    60    94    95   ar
    61   154   156   ar
    62     7     6    1
    63     7     9   ar
    64    65    67   ar
    65   129   128    2
    66    93    95   ar
    67    93    96   ar
    68    72    70   ar
    69   149   152    1
    70   149   150    1
    71    68    67   ar
    72    68    70   ar
    73    95    97   ar
    74   128   127    1
    75   107   109   ar
    76   107   105   ar
    77    96    98   ar
    78   130   127    1
    79   130   131    1
    80   100   101    1
    81   109   108   ar
    82   104   105    1
    83   104   101    1
    84   151   150    2
    85   150   157   am
    86   105   106   ar
    87   127   126    1
    88    97    99   ar
    89   102   101    1
    90   102   103    2
    91   133   131   ar
    92    98    99   ar
    93   131   132   ar
    94   113   112    2
    95   110   111    1
    96   108   106   ar
    97   157   158    1
    98   120   119    2
    99   115   114    1
   100   121   122    1
   101   121   118    1
   102   122   123    1
   103   112   111    1
   104   111   114    1
   105   158   159    1
   106   158   161    1
   107   119   118    1
   108   117   118    1
   109   114   116    1
   110   123   125   ar
   111   123   124   ar
   112   159   160    2
   113   161   162    1
   114   171   170    1
   115    38    36   ar
   116    38    39   ar
   117    40    39    1
   118    28    26    1
   119    36    34   ar
   120   170   169    1
   121   170   172    1
   122    39    37   ar
   123   169   166    1
   124   162   164   ar
   125   162   163   ar
   126    26    23    1
   127    26    27    1
   128   167   166    1
   129   167   168    2
   130    23    24    1
   131    23    22    1
   132    34    33    1
   133    34    35   ar
   134   166   165    1
   135    24    25    2
   136    37    35   ar
   137    29    30    1
   138    33    30    1
   139    30    31    1
   140    10    11    1
   141    11    14    1
   142    11    12    1
   143   173   174    1
   144   175   174    1
   145   175   176    2
   146    13    12    2
   147    12    15   am
   148    41    31   am
   149    41    42    1
   150    31    32    2
   151   174   177    1
   152   177   178    1
   153    45    42    1
   154    15    16    1
   155    17    18    2
   156    17    16    1
   157    42    43    1
   158   178   179    1
   159    16    19    1
   160   181   180    1
   161    43    44    2
   162   180   179    1
   163    20    19    1
   164    19    21    1
   165    46    47    1
   166    50    47    1
   167    47    48    1
   168    58    56   ar
   169    51    48   am
   170    51    52    1
   171    48    49    2
   172    55    56    1
   173    55    52    1
   174    56    57   ar
   175    52    53    1
   176    53    54    2
