@<TRIPOS>MOLECULE
tmp/2b2wA00.pdb
 156 151 0 0 0
SMALL
GASTEIGER

@<TRIPOS>ATOM
      1  N        -25.4220  -15.1040  -11.8450 N.3     4  GLU4       -0.1245
      2  CA       -24.9480  -13.8160  -12.2930 C.3     4  GLU4        0.1567
      3  C        -23.9140  -14.0770  -13.3780 C.2     4  GLU4        0.2260
      4  O        -23.3420  -15.1660  -13.4510 O.2     4  GLU4       -0.2867
      5  CB       -24.3500  -13.0500  -11.1130 C.3     4  GLU4        0.0388
      6  CG       -25.3680  -12.6670  -10.0260 C.3     4  GLU4        0.1160
      7  CD       -26.5780  -11.9050  -10.5600 C.2     4  GLU4        0.3649
      8  OE1      -26.5410  -11.3740  -11.6890 O.co2   4  GLU4       -0.2457
      9  OE2      -27.5780  -11.8290   -9.8280 O.co2   4  GLU4       -0.2457
     10  N        -17.7670   -8.7030   -2.4000 N.3    21  GLY21      -0.1210
     11  CA       -19.1970   -8.9410   -2.3640 C.3    21  GLY21       0.1956
     12  C        -20.0590   -7.7040   -2.2200 C.2    21  GLY21       0.2611
     13  O        -19.6030   -6.5760   -2.4360 O.2    21  GLY21      -0.2717
     14  N        -21.3110   -7.9440   -1.8370 N.am   22  ALA22      -0.1979
     15  CA       -22.3200   -6.9070   -1.6740 C.3    22  ALA22       0.1597
     16  C        -21.8680   -5.7160   -0.8540 C.2    22  ALA22       0.2287
     17  O        -22.1590   -4.5710   -1.2100 O.2    22  ALA22      -0.2864
     18  CB       -23.5950   -7.5100   -1.0670 C.3    22  ALA22       0.0319
     19  N        -20.2010   -2.4920   -2.6910 N.3    25  THR25      -0.1218
     20  CA       -20.8100   -1.5970   -3.6720 C.3    25  THR25       0.1862
     21  C        -20.6080   -0.1930   -3.1400 C.2    25  THR25       0.2287
     22  O        -20.4850    0.0010   -1.9280 O.2    25  THR25      -0.2866
     23  CB       -22.3310   -1.8250   -3.8320 C.3    25  THR25       0.1770
     24  OG1      -22.9980   -1.4980   -2.6070 O.3    25  THR25      -0.2211
     25  CG2      -22.6240   -3.2700   -4.2000 C.3    25  THR25       0.0375
     26  N        -22.6570    2.1140   -2.7240 N.3    27  TYR27      -0.1227
     27  CA       -23.6660    2.5230   -1.7660 C.3    27  TYR27       0.1736
     28  C        -23.5680    1.7840   -0.4340 C.2    27  TYR27       0.2595
     29  O        -23.9440    2.3210    0.6070 O.2    27  TYR27      -0.2718
     30  CB       -25.0680    2.4050   -2.3710 C.3    27  TYR27       0.0548
     31  CG       -25.4030    1.0760   -3.0010 C.ar   27  TYR27      -0.0200
     32  CD1      -26.0920    0.0890   -2.2850 C.ar   27  TYR27      -0.0009
     33  CD2      -25.0740    0.8190   -4.3290 C.ar   27  TYR27      -0.0009
     34  CE1      -26.4520   -1.1200   -2.8850 C.ar   27  TYR27       0.0417
     35  CE2      -25.4220   -0.3810   -4.9360 C.ar   27  TYR27       0.0417
     36  CZ       -26.1100   -1.3450   -4.2150 C.ar   27  TYR27       0.1957
     37  OH       -26.4510   -2.5260   -4.8350 O.3    27  TYR27      -0.2866
     38  N        -23.0600    0.5610   -0.4540 N.am   28  ALA28      -0.1980
     39  CA       -22.9040   -0.1740    0.7890 C.3    28  ALA28       0.1597
     40  C        -21.8020    0.5590    1.5430 C.2    28  ALA28       0.2287
     41  O        -21.9210    0.8490    2.7280 O.2    28  ALA28      -0.2864
     42  CB       -22.4920   -1.6030    0.5060 C.3    28  ALA28       0.0319
     43  N        -21.4420   -6.3060  -13.6190 N.3    54  TRP54      -0.1241
     44  CA       -22.2970   -7.4600  -13.8530 C.3    54  TRP54       0.1605
     45  C        -23.3000   -7.2910  -14.9810 C.2    54  TRP54       0.2264
     46  O        -23.7540   -6.1930  -15.2810 O.2    54  TRP54      -0.2867
     47  CB       -23.0480   -7.8130  -12.5660 C.3    54  TRP54       0.0550
     48  CG       -22.1460   -8.1010  -11.3960 C.ar   54  TRP54       0.0003
     49  CD1      -21.7910   -7.2410  -10.3970 C.ar   54  TRP54       0.0946
     50  CD2      -21.4850   -9.3380  -11.1140 C.ar   54  TRP54       0.0152
     51  NE1      -20.9560   -7.8650   -9.5080 N.ar   54  TRP54      -0.2442
     52  CE2      -20.7480   -9.1540   -9.9230 C.ar   54  TRP54       0.0810
     53  CE3      -21.4440  -10.5880  -11.7550 C.ar   54  TRP54       0.0012
     54  CZ2      -19.9760  -10.1720   -9.3540 C.ar   54  TRP54       0.0191
     55  CZ3      -20.6760  -11.5990  -11.1890 C.ar   54  TRP54       0.0001
     56  CH2      -19.9540  -11.3830  -10.0000 C.ar   54  TRP54       0.0015
     57  N        -26.6800   -7.1150  -16.6570 N.3    56  GLY56      -0.1210
     58  CA       -28.0020   -6.7730  -16.1560 C.3    56  GLY56       0.1956
     59  C        -28.0810   -5.8980  -14.9160 C.2    56  GLY56       0.2611
     60  O        -29.1680   -5.6490  -14.4150 O.2    56  GLY56      -0.2717
     61  N        -26.9380   -5.4570  -14.4000 N.am   57  TRP57      -0.1976
     62  CA       -26.9090   -4.5700  -13.2400 C.3    57  TRP57       0.1640
     63  C        -26.1330   -3.3330  -13.6800 C.2    57  TRP57       0.2290
     64  O        -25.1700   -3.4370  -14.4410 O.2    57  TRP57      -0.2864
     65  CB       -26.1870   -5.2190  -12.0480 C.3    57  TRP57       0.0576
     66  CG       -26.8330   -6.4590  -11.4930 C.ar   57  TRP57       0.0006
     67  CD1      -26.8310   -7.7070  -12.0540 C.ar   57  TRP57       0.0946
     68  CD2      -27.5320   -6.5850  -10.2450 C.ar   57  TRP57       0.0152
     69  NE1      -27.4770   -8.5990  -11.2290 N.ar   57  TRP57      -0.2442
     70  CE2      -27.9160   -7.9380  -10.1150 C.ar   57  TRP57       0.0810
     71  CE3      -27.8670   -5.6880   -9.2250 C.ar   57  TRP57       0.0012
     72  CZ2      -28.6170   -8.4150   -9.0060 C.ar   57  TRP57       0.0191
     73  CZ3      -28.5640   -6.1600   -8.1180 C.ar   57  TRP57       0.0001
     74  CH2      -28.9320   -7.5150   -8.0190 C.ar   57  TRP57       0.0015
     75  N        -23.8490   -1.0300   -9.0980 N.3    61  HIS61      -0.1241
     76  CA       -23.8560   -2.3220   -8.4360 C.3    61  HIS61       0.1621
     77  C        -22.5590   -3.1140   -8.5360 C.2    61  HIS61       0.2264
     78  O        -22.5090   -4.2520   -8.0790 O.2    61  HIS61      -0.2867
     79  CB       -24.9860   -3.1760   -8.9870 C.3    61  HIS61       0.0745
     80  CG       -26.3370   -2.5800   -8.7860 C.ar   61  HIS61       0.0817
     81  ND1      -26.9120   -2.4500   -7.5410 N.ar   61  HIS61      -0.2268
     82  CD2      -27.1990   -2.0130   -9.6650 C.ar   61  HIS61       0.1154
     83  CE1      -28.0670   -1.8210   -7.6590 C.ar   61  HIS61       0.1986
     84  NE2      -28.2630   -1.5420   -8.9380 N.ar   61  HIS61      -0.2212
     85  N        -19.1010   -4.8750   -7.8410 N.3    63  THR63      -0.1218
     86  CA       -18.5440   -5.3770   -6.5940 C.3    63  THR63       0.1862
     87  C        -17.1410   -5.9200   -6.8160 C.2    63  THR63       0.2287
     88  O        -16.7750   -6.2700   -7.9390 O.2    63  THR63      -0.2866
     89  CB       -19.3910   -6.5220   -6.0010 C.3    63  THR63       0.1770
     90  OG1      -19.5140   -7.5700   -6.9720 O.3    63  THR63      -0.2211
     91  CG2      -20.7590   -6.0290   -5.6120 C.3    63  THR63       0.0375
     92  N        -14.4170   -8.8290   -6.2310 N.3    65  GLU65      -0.1245
     93  CA       -14.4730  -10.2730   -6.0690 C.3    65  GLU65       0.1567
     94  C        -13.0790  -10.8800   -6.2690 C.2    65  GLU65       0.2260
     95  O        -12.1630  -10.2120   -6.7380 O.2    65  GLU65      -0.2867
     96  CB       -15.4290  -10.8650   -7.1170 C.3    65  GLU65       0.0388
     97  CG       -16.8430  -10.2810   -7.1520 C.3    65  GLU65       0.1160
     98  CD       -17.7110  -10.7530   -6.0020 C.2    65  GLU65       0.3649
     99  OE1      -17.4380  -11.8380   -5.4600 O.co2  65  GLU65      -0.2457
    100  OE2      -18.6790  -10.0500   -5.6500 O.co2  65  GLU65      -0.2457
    101  N        -19.7830  -18.5980   -6.2670 N.3    73  GLN73      -0.1245
    102  CA       -21.1480  -18.2730   -6.6440 C.3    73  GLN73       0.1566
    103  C        -21.5160  -18.7170   -8.0480 C.2    73  GLN73       0.2260
    104  O        -22.4700  -18.2230   -8.6140 O.2    73  GLN73      -0.2867
    105  CB       -21.4500  -16.7780   -6.4550 C.3    73  GLN73       0.0367
    106  CG       -20.2980  -15.8370   -6.6630 C.3    73  GLN73       0.0905
    107  CD       -20.4340  -14.5890   -5.8050 C.2    73  GLN73       0.2608
    108  OE1      -20.6490  -14.6810   -4.6000 O.2    73  GLN73      -0.2717
    109  NE2      -20.3020  -13.4200   -6.4200 N.am   73  GLN73      -0.0878
    110  N        -39.6850    3.4710   -7.8250 N.3   140  ASP140     -0.1239
    111  CA       -38.3630    3.2390   -8.3940 C.3   140  ASP140      0.1674
    112  C        -38.1100    4.3330   -9.4160 C.2   140  ASP140      0.2266
    113  O        -39.0440    5.0170   -9.8490 O.2   140  ASP140     -0.2867
    114  CB       -38.2710    1.8560   -9.0410 C.3   140  ASP140      0.1410
    115  CG       -38.3070    0.7410   -8.0220 C.2   140  ASP140      0.3668
    116  OD1      -37.7340    0.9320   -6.9310 O.co2 140  ASP140     -0.2456
    117  OD2      -38.8880   -0.3250   -8.3000 O.co2 140  ASP140     -0.2456
    118  N        -33.8570    1.0450  -14.3610 N.3   155  TRP155     -0.1227
    119  CA       -34.7340    1.3160  -13.2320 C.3   155  TRP155      0.1737
    120  C        -33.9370    0.9970  -11.9670 C.2   155  TRP155      0.2595
    121  O        -33.2160   -0.0020  -11.9230 O.2   155  TRP155     -0.2718
    122  CB       -36.0000    0.4500  -13.3100 C.3   155  TRP155      0.0564
    123  CG       -36.9540    0.9170  -14.3690 C.ar  155  TRP155      0.0003
    124  CD1      -37.0280    0.4870  -15.6710 C.ar  155  TRP155      0.0946
    125  CD2      -37.9110    1.9760  -14.2420 C.ar  155  TRP155      0.0152
    126  NE1      -37.9690    1.2200  -16.3570 N.ar  155  TRP155     -0.2442
    127  CE2      -38.5270    2.1390  -15.5040 C.ar  155  TRP155      0.0810
    128  CE3      -38.3060    2.8050  -13.1830 C.ar  155  TRP155      0.0012
    129  CZ2      -39.5180    3.0990  -15.7320 C.ar  155  TRP155      0.0191
    130  CZ3      -39.2880    3.7590  -13.4090 C.ar  155  TRP155      0.0001
    131  CH2      -39.8840    3.8970  -14.6750 C.ar  155  TRP155      0.0015
    132  N        -34.0450    1.8530  -10.9530 N.am  156  GLU156     -0.1965
    133  CA       -33.3120    1.6350   -9.7140 C.3   156  GLU156      0.1733
    134  C        -34.1780    1.8440   -8.4780 C.2   156  GLU156      0.2616
    135  O        -35.1010    2.6600   -8.4700 O.2   156  GLU156     -0.2715
    136  CB       -32.0740    2.5500   -9.6500 C.3   156  GLU156      0.0429
    137  CG       -31.0810    2.3630  -10.8160 C.3   156  GLU156      0.1163
    138  CD       -30.3400    1.0230  -10.7760 C.2   156  GLU156      0.3649
    139  OE1      -29.7560    0.6210  -11.8020 O.co2 156  GLU156     -0.2457
    140  OE2      -30.3290    0.3740   -9.7110 O.co2 156  GLU156     -0.2457
    141  N        -33.8740    1.0740   -7.4400 N.am  157  ASP157     -0.1971
    142  CA       -34.5740    1.1330   -6.1690 C.3   157  ASP157      0.1709
    143  C        -34.6190    2.5730   -5.6930 C.2   157  ASP157      0.2293
    144  O        -33.5890    3.2430   -5.6230 O.2   157  ASP157     -0.2864
    145  CB       -33.8400    0.2540   -5.1600 C.3   157  ASP157      0.1436
    146  CG       -34.3900    0.3830   -3.7750 C.2   157  ASP157      0.3671
    147  OD1      -33.9570    1.3100   -3.0650 O.co2 157  ASP157     -0.2456
    148  OD2      -35.2560   -0.4360   -3.4060 O.co2 157  ASP157     -0.2456
    149  N        -32.5030    3.5780   -2.4900 N.3   160  LEU160     -0.1245
    150  CA       -31.0830    3.6650   -2.8030 C.3   160  LEU160      0.1561
    151  C        -30.6940    4.9990   -3.4410 C.2   160  LEU160      0.2260
    152  O        -29.7970    5.6980   -2.9590 O.2   160  LEU160     -0.2867
    153  CB       -30.6880    2.5070   -3.7230 C.3   160  LEU160      0.0270
    154  CG       -29.1960    2.3000   -4.0320 C.3   160  LEU160      0.0019
    155  CD1      -29.0170    0.9780   -4.7690 C.3   160  LEU160      0.0001
    156  CD2      -28.6630    3.4260   -4.8780 C.3   160  LEU160      0.0001
@<TRIPOS>BOND
     1    57    58    1
     2   126   124   ar
     3   126   127   ar
     4    58    59    1
     5   129   127   ar
     6   129   131   ar
     7   124   123   ar
     8   127   125   ar
     9    46    45    2
    10    45    44    1
    11    59    60    2
    12    59    61   am
    13   131   130   ar
    14    64    63    2
    15    61    62    1
    16   123   125   ar
    17   123   122    1
    18   118   119    1
    19   125   128   ar
    20    44    43    1
    21    44    47    1
    22    63    62    1
    23     4     3    2
    24   130   128   ar
    25     3     2    1
    26   122   119    1
    27    62    65    1
    28   119   120    1
    29    47    48    1
    30     2     1    1
    31     2     5    1
    32    67    66   ar
    33    67    69   ar
    34    65    66    1
    35   120   121    2
    36   120   132   am
    37   139   138   ar
    38    53    55   ar
    39    53    50   ar
    40     8     7   ar
    41    66    68   ar
    42    48    50   ar
    43    48    49   ar
    44    69    70   ar
    45    55    56   ar
    46    50    52   ar
    47     5     6    1
    48   132   133    1
    49   137   138    1
    50   137   136    1
    51   138   140   ar
    52     7     6    1
    53     7     9   ar
    54    49    51   ar
    55    68    70   ar
    56    68    71   ar
    57    70    72   ar
    58    56    54   ar
    59    52    51   ar
    60    52    54   ar
    61   113   112    2
    62   133   136    1
    63   133   134    1
    64    82    84   ar
    65    82    80   ar
    66   112   111    1
    67    71    73   ar
    68    75    76    1
    69   114   111    1
    70   114   115    1
    71    72    74   ar
    72    79    80    1
    73    79    76    1
    74    84    83   ar
    75    80    81   ar
    76   104   103    2
    77    77    76    1
    78    77    78    2
    79   134   135    2
    80   134   141   am
    81   111   110    1
    82   117   115   ar
    83    73    74   ar
    84   103   102    1
    85   115   116   ar
    86    88    87    2
    87    85    86    1
    88    83    81   ar
    89   141   142    1
    90    97    96    1
    91    97    98    1
    92    96    93    1
    93    90    89    1
    94    87    86    1
    95    95    94    2
    96   106   105    1
    97   106   107    1
    98   102   105    1
    99   102   101    1
   100    86    89    1
   101   109   107   am
   102    94    93    1
   103    92    93    1
   104   142   143    1
   105   142   145    1
   106    98   100   ar
   107    98    99   ar
   108    89    91    1
   109   107   108    2
   110   143   144    2
   111   145   146    1
   112    35    33   ar
   113    35    36   ar
   114   156   154    1
   115    37    36    1
   116   155   154    1
   117    33    31   ar
   118    36    34   ar
   119    25    23    1
   120   154   153    1
   121    23    20    1
   122    23    24    1
   123   146   148   ar
   124   146   147   ar
   125   153   150    1
   126    20    21    1
   127    20    19    1
   128   151   152    2
   129   151   150    1
   130    21    22    2
   131    31    30    1
   132    31    32   ar
   133    34    32   ar
   134   150   149    1
   135    26    27    1
   136    13    12    2
   137    10    11    1
   138    30    27    1
   139    11    12    1
   140    12    14   am
   141    14    15    1
   142    27    28    1
   143    15    18    1
   144    15    16    1
   145    17    16    2
   146    38    28   am
   147    38    39    1
   148    28    29    2
   149    42    39    1
   150    39    40    1
   151    40    41    2
