@<TRIPOS>MOLECULE
tmp/2b35B00.pdb
 99 94 0 0 0
SMALL
GASTEIGER

@<TRIPOS>ATOM
      1  N         17.3860   -4.1680  -16.8610 N.3    93  SER93      -0.1217
      2  CA        17.0370   -5.5700  -16.6110 C.3    93  SER93       0.1889
      3  C         18.3230   -6.1730  -16.0670 C.2    93  SER93       0.2288
      4  O         18.8270   -7.1990  -16.5170 O.2    93  SER93      -0.2866
      5  CB        16.5310   -6.2590  -17.8900 C.3    93  SER93       0.2089
      6  OG        16.1980   -7.6320  -17.6970 O.3    93  SER93      -0.2183
      7  N         20.1670   -7.3200  -12.4560 N.3    95  GLY95      -0.1210
      8  CA        20.1460   -7.6330  -11.0380 C.3    95  GLY95       0.1956
      9  C         21.3040   -8.5460  -10.6840 C.2    95  GLY95       0.2612
     10  O         21.8110   -9.2750  -11.5170 O.2    95  GLY95      -0.2717
     11  N         21.7510   -8.4730   -9.4490 N.am   96  PHE96      -0.1962
     12  CA        22.7020   -9.4340   -8.9340 C.3    96  PHE96       0.1771
     13  C         22.6920   -9.3380   -7.4120 C.2    96  PHE96       0.2619
     14  O         22.6060   -8.2380   -6.8770 O.2    96  PHE96      -0.2715
     15  CB        24.0990   -9.1700   -9.4860 C.3    96  PHE96       0.0574
     16  CG        25.2010   -9.9480   -8.8010 C.ar   96  PHE96      -0.0200
     17  CD1       25.4130  -11.2870   -9.0860 C.ar   96  PHE96      -0.0042
     18  CD2       26.0360   -9.3360   -7.8780 C.ar   96  PHE96      -0.0042
     19  CE1       26.4560  -11.9940   -8.4690 C.ar   96  PHE96      -0.0003
     20  CE2       27.0570  -10.0240   -7.3040 C.ar   96  PHE96      -0.0003
     21  CZ        27.2610  -11.3530   -7.5930 C.ar   96  PHE96      -0.0000
     22  N         22.6810  -10.5020   -6.7660 N.am   97  MET97      -0.1977
     23  CA        23.0110  -10.6650   -5.3580 C.3    97  MET97       0.1605
     24  C         23.8990  -11.9090   -5.2140 C.2    97  MET97       0.2287
     25  O         23.5070  -12.9960   -5.6710 O.2    97  MET97      -0.2864
     26  CB        21.7440  -10.9050   -4.5380 C.3    97  MET97       0.0413
     27  CG        21.9850  -10.9470   -3.0500 C.3    97  MET97       0.0598
     28  SD        22.5470   -9.3810   -2.4170 S.3    97  MET97      -0.1393
     29  CE        21.1340   -8.3400   -2.6880 C.3    97  MET97       0.0692
     30  N         21.3520  -14.7180   -0.8070 N.3   102  MET102     -0.1245
     31  CA        20.2450  -15.1600   -1.6420 C.3   102  MET102      0.1570
     32  C         20.4190  -16.6320   -1.8910 C.2   102  MET102      0.2261
     33  O         21.3880  -17.0310   -2.5430 O.2   102  MET102     -0.2867
     34  CB        20.2640  -14.4330   -3.0030 C.3   102  MET102      0.0387
     35  CG        18.8850  -14.1490   -3.5660 C.3   102  MET102      0.0595
     36  SD        18.8050  -13.9810   -5.3780 S.3   102  MET102     -0.1393
     37  CE        18.1240  -15.6130   -5.7630 C.3   102  MET102      0.0692
     38  N         10.6570   -7.5590   -8.6640 N.3   148  PHE148     -0.1241
     39  CA         9.9630   -8.7180   -8.1720 C.3   148  PHE148      0.1605
     40  C          9.3360   -8.2750   -6.8260 C.2   148  PHE148      0.2264
     41  O         10.0540   -7.9020   -5.8870 O.2   148  PHE148     -0.2867
     42  CB        10.9240   -9.8990   -8.0560 C.3   148  PHE148      0.0534
     43  CG        10.2540  -11.2170   -7.7670 C.ar  148  PHE148     -0.0203
     44  CD1       10.3780  -11.8250   -6.5160 C.ar  148  PHE148     -0.0042
     45  CD2        9.5010  -11.8430   -8.7210 C.ar  148  PHE148     -0.0042
     46  CE1        9.7640  -13.0320   -6.2370 C.ar  148  PHE148     -0.0003
     47  CE2        8.8680  -13.0320   -8.4390 C.ar  148  PHE148     -0.0003
     48  CZ         9.0060  -13.6230   -7.1860 C.ar  148  PHE148     -0.0000
     49  N         14.8420  -15.6520   -1.2330 N.3   157  TYR157     -0.1241
     50  CA        15.1110  -14.4120   -1.9760 C.3   157  TYR157      0.1605
     51  C         15.8740  -13.4500   -1.0660 C.2   157  TYR157      0.2264
     52  O         16.8470  -12.7870   -1.4840 O.2   157  TYR157     -0.2867
     53  CB        13.7840  -13.8580   -2.5210 C.3   157  TYR157      0.0534
     54  CG        13.8840  -12.9490   -3.7310 C.ar  157  TYR157     -0.0201
     55  CD1       14.4550  -13.3880   -4.9260 C.ar  157  TYR157     -0.0009
     56  CD2       13.3700  -11.6470   -3.6940 C.ar  157  TYR157     -0.0009
     57  CE1       14.5460  -12.5250   -6.0420 C.ar  157  TYR157      0.0417
     58  CE2       13.4500  -10.7890   -4.7970 C.ar  157  TYR157      0.0417
     59  CZ        14.0320  -11.2250   -5.9550 C.ar  157  TYR157      0.1957
     60  OH        14.0780  -10.3470   -7.0000 O.3   157  TYR157     -0.2866
     61  N         17.9560  -10.1300   -1.7830 N.3   160  MET160     -0.1245
     62  CA        17.5430   -9.6090   -3.1060 C.3   160  MET160      0.1570
     63  C         16.1630   -8.9160   -2.9970 C.2   160  MET160      0.2261
     64  O         15.9130   -7.8930   -3.6350 O.2   160  MET160     -0.2867
     65  CB        17.5430  -10.7050   -4.1470 C.3   160  MET160      0.0387
     66  CG        17.1550  -10.2250   -5.5380 C.3   160  MET160      0.0595
     67  SD        18.2400   -8.9890   -6.2710 S.3   160  MET160     -0.1393
     68  CE        19.1260   -9.9750   -7.4890 C.3   160  MET160      0.0692
     69  N         15.2600   -5.2560   -4.1990 N.3   164  LYS164     -0.1245
     70  CA        14.0440   -4.8340   -4.9420 C.3   164  LYS164      0.1561
     71  C         13.1940   -3.7680   -4.2310 C.2   164  LYS164      0.2260
     72  O         12.6460   -2.8770   -4.8830 O.2   164  LYS164     -0.2867
     73  CB        13.1550   -6.0380   -5.2950 C.3   164  LYS164      0.0271
     74  CG        13.7340   -7.0450   -6.2730 C.3   164  LYS164      0.0035
     75  CD        14.4460   -6.3810   -7.3970 C.3   164  LYS164      0.0206
     76  CE        14.6910   -7.3510   -8.5460 C.3   164  LYS164      0.1093
     77  NZ        15.0630   -6.6350   -9.7830 N.3   164  LYS164     -0.1314
     78  N          7.7250  -15.3350  -11.4420 N.3   192  PRO192     -0.2102
     79  CA         8.9840  -16.0800  -11.5760 C.3   192  PRO192      0.1504
     80  C          9.1160  -16.6520  -13.0020 C.2   192  PRO192      0.2575
     81  O          8.2020  -17.2960  -13.4810 O.2   192  PRO192     -0.2718
     82  CB         8.8880  -17.1660  -10.4780 C.3   192  PRO192      0.0282
     83  CG         7.4450  -17.3620  -10.2580 C.3   192  PRO192      0.0208
     84  CD         6.7310  -16.0660  -10.6450 C.3   192  PRO192      0.0893
     85  N         10.2180  -16.3310  -13.6850 N.am  193  ILE193     -0.1980
     86  CA        10.5050  -16.8020  -15.0590 C.3   193  ILE193      0.1595
     87  C         11.6630  -17.7760  -14.9880 C.2   193  ILE193      0.2287
     88  O         12.6000  -17.5430  -14.2310 O.2   193  ILE193     -0.2864
     89  CB        10.9880  -15.6510  -15.9810 C.3   193  ILE193      0.0276
     90  CG1        9.9450  -14.5240  -16.0880 C.3   193  ILE193      0.0022
     91  CG2       11.3680  -16.1910  -17.3780 C.3   193  ILE193      0.0022
     92  CD1        8.7180  -14.8840  -16.9040 C.3   193  ILE193      0.0001
     93  N         14.8000  -18.6880  -16.2020 N.3   195  THR195     -0.1218
     94  CA        15.9070  -18.1010  -16.9610 C.3   195  THR195      0.1862
     95  C         17.0230  -19.1280  -17.1300 C.2   195  THR195      0.2287
     96  O         17.0400  -20.1610  -16.4510 O.2   195  THR195     -0.2866
     97  CB        16.4240  -16.7930  -16.2660 C.3   195  THR195      0.1770
     98  OG1       15.3480  -15.8520  -16.1890 O.3   195  THR195     -0.2211
     99  CG2       17.5740  -16.1410  -17.0360 C.3   195  THR195      0.0375
@<TRIPOS>BOND
     1     5     6    1
     2     5     2    1
     3    91    89    1
     4    95    94    1
     5    95    96    2
     6    99    97    1
     7    94    97    1
     8    94    93    1
     9    92    90    1
    10     1     2    1
    11     2     3    1
    12     4     3    2
    13    97    98    1
    14    90    89    1
    15    89    86    1
    16    86    87    1
    17    86    85    1
    18    87    88    2
    19    85    80   am
    20    81    80    2
    21    80    79    1
    22     7     8    1
    23    79    78    1
    24    79    82    1
    25    10     9    2
    26    78    84    1
    27     8     9    1
    28     9    11   am
    29    84    83    1
    30    82    83    1
    31    77    76    1
    32    15    12    1
    33    15    16    1
    34    11    12    1
    35    17    16   ar
    36    17    19   ar
    37    12    13    1
    38    16    18   ar
    39    45    47   ar
    40    45    43   ar
    41    38    39    1
    42    76    75    1
    43    19    21   ar
    44    47    48   ar
    45    39    42    1
    46    39    40    1
    47    42    43    1
    48    18    20   ar
    49    43    44   ar
    50    21    20   ar
    51    68    67    1
    52    13    14    2
    53    13    22   am
    54    75    74    1
    55    48    46   ar
    56    60    59    1
    57    40    41    2
    58    22    23    1
    59    44    46   ar
    60    74    73    1
    61    67    66    1
    62    57    59   ar
    63    57    55   ar
    64    59    58   ar
    65    37    36    1
    66    25    24    2
    67    66    65    1
    68    36    35    1
    69    23    24    1
    70    23    26    1
    71    73    70    1
    72    70    71    1
    73    70    69    1
    74    55    54   ar
    75    72    71    2
    76    58    56   ar
    77    26    27    1
    78    65    62    1
    79    54    56   ar
    80    54    53    1
    81    64    63    2
    82    35    34    1
    83    62    63    1
    84    62    61    1
    85    27    28    1
    86    34    31    1
    87    29    28    1
    88    33    32    2
    89    53    50    1
    90    50    49    1
    91    50    51    1
    92    32    31    1
    93    31    30    1
    94    52    51    2
