@<TRIPOS>MOLECULE
tmp/2b36E00.pdb
 134 129 0 0 0
SMALL
GASTEIGER

@<TRIPOS>ATOM
      1  N         27.8900  -10.8950   82.6420 N.3    95  GLY95      -0.1210
      2  CA        28.9370  -11.4520   81.8130 C.3    95  GLY95       0.1956
      3  C         29.5870  -12.6650   82.4520 C.2    95  GLY95       0.2612
      4  O         29.8550  -12.6980   83.6590 O.2    95  GLY95      -0.2717
      5  N         29.8370  -13.6740   81.6400 N.am   96  PHE96      -0.1962
      6  CA        30.5170  -14.8760   82.1170 C.3    96  PHE96       0.1771
      7  C         31.1980  -15.5810   80.9460 C.2    96  PHE96       0.2619
      8  O         30.8010  -15.3940   79.8020 O.2    96  PHE96      -0.2715
      9  CB        29.5280  -15.7980   82.8330 C.3    96  PHE96       0.0574
     10  CG        30.0750  -17.1670   83.1510 C.ar   96  PHE96      -0.0200
     11  CD1       30.9020  -17.3620   84.2450 C.ar   96  PHE96      -0.0042
     12  CD2       29.7360  -18.2630   82.3710 C.ar   96  PHE96      -0.0042
     13  CE1       31.4000  -18.6150   84.5430 C.ar   96  PHE96      -0.0003
     14  CE2       30.2350  -19.5310   82.6900 C.ar   96  PHE96      -0.0003
     15  CZ        31.0750  -19.6910   83.7850 C.ar   96  PHE96      -0.0000
     16  N         32.2500  -16.3300   81.2530 N.am   97  MET97      -0.1977
     17  CA        33.0000  -17.1240   80.2720 C.3    97  MET97       0.1605
     18  C         33.9660  -18.0750   81.0320 C.2    97  MET97       0.2287
     19  O         34.8610  -17.6160   81.7390 O.2    97  MET97      -0.2864
     20  CB        33.7950  -16.1990   79.3190 C.3    97  MET97       0.0413
     21  CG        34.4550  -16.8940   78.0920 C.3    97  MET97       0.0598
     22  SD        33.3350  -17.8650   77.0330 S.3    97  MET97      -0.1393
     23  CE        32.2760  -16.6550   76.2260 C.3    97  MET97       0.0692
     24  N         38.7970  -18.1140   77.7800 N.3   102  MET102     -0.1230
     25  CA        39.2610  -16.7910   78.1270 C.3   102  MET102      0.1702
     26  C         40.4780  -16.8660   79.0400 C.2   102  MET102      0.2592
     27  O         40.4670  -17.5630   80.0390 O.2   102  MET102     -0.2718
     28  CB        38.1210  -16.0120   78.7830 C.3   102  MET102      0.0401
     29  CG        38.4670  -14.6000   79.2130 C.3   102  MET102      0.0596
     30  SD        37.0250  -13.8290   79.9270 S.3   102  MET102     -0.1393
     31  CE        36.8210  -14.8250   81.4240 C.3   102  MET102      0.0692
     32  N         41.5370  -16.1630   78.6670 N.am  103  GLY103     -0.1957
     33  CA        42.7170  -16.0980   79.4820 C.3   103  GLY103      0.1869
     34  C         43.8980  -16.6840   78.7740 C.2   103  GLY103      0.2309
     35  O         44.1230  -16.4050   77.6020 O.2   103  GLY103     -0.2863
     36  N         32.5240   -4.3710   75.8320 N.3   148  PHE148     -0.1241
     37  CA        33.9500   -4.1280   75.7090 C.3   148  PHE148      0.1605
     38  C         34.2470   -4.2550   74.2530 C.2   148  PHE148      0.2264
     39  O         34.2050   -5.3760   73.7110 O.2   148  PHE148     -0.2867
     40  CB        34.7320   -5.1860   76.4570 C.3   148  PHE148      0.0534
     41  CG        36.2360   -4.9010   76.5870 C.ar  148  PHE148     -0.0203
     42  CD1       37.1720   -5.7490   76.0120 C.ar  148  PHE148     -0.0042
     43  CD2       36.7050   -3.8440   77.3340 C.ar  148  PHE148     -0.0042
     44  CE1       38.5460   -5.5170   76.1710 C.ar  148  PHE148     -0.0003
     45  CE2       38.0620   -3.6160   77.4850 C.ar  148  PHE148     -0.0003
     46  CZ        38.9800   -4.4490   76.9120 C.ar  148  PHE148     -0.0000
     47  N         44.6720  -10.3870   72.8930 N.3   155  PRO155     -0.2102
     48  CA        45.0540  -11.5550   73.6980 C.3   155  PRO155      0.1504
     49  C         44.1530  -11.7850   74.9240 C.2   155  PRO155      0.2576
     50  O         43.3960  -10.9120   75.3160 O.2   155  PRO155     -0.2718
     51  CB        46.4730  -11.2060   74.1350 C.3   155  PRO155      0.0282
     52  CG        46.4530   -9.6850   74.1980 C.3   155  PRO155      0.0208
     53  CD        45.6720   -9.3100   72.9820 C.3   155  PRO155      0.0893
     54  N         44.2250  -12.9770   75.4990 N.am  156  ALA156     -0.1966
     55  CA        43.4630  -13.3370   76.7120 C.3   156  ALA156      0.1728
     56  C         41.9380  -13.2750   76.5460 C.2   156  ALA156      0.2616
     57  O         41.2780  -14.3170   76.6030 O.2   156  ALA156     -0.2715
     58  CB        43.9050  -12.4930   77.8990 C.3   156  ALA156      0.0334
     59  N         41.3880  -12.0740   76.3310 N.am  157  TYR157     -0.1974
     60  CA        39.9310  -11.8870   76.2090 C.3   157  TYR157      0.1639
     61  C         39.2650  -12.9370   75.2870 C.2   157  TYR157      0.2290
     62  O         38.1020  -13.3180   75.5040 O.2   157  TYR157     -0.2864
     63  CB        39.6110  -10.4620   75.7230 C.3   157  TYR157      0.0560
     64  CG        38.2370   -9.9660   76.1350 C.ar  157  TYR157     -0.0198
     65  CD1       37.9270   -9.7690   77.4780 C.ar  157  TYR157     -0.0009
     66  CD2       37.2360   -9.6810   75.1830 C.ar  157  TYR157     -0.0009
     67  CE1       36.6480   -9.3110   77.8840 C.ar  157  TYR157      0.0417
     68  CE2       35.9400   -9.2100   75.5740 C.ar  157  TYR157      0.0417
     69  CZ        35.6580   -9.0230   76.9330 C.ar  157  TYR157      0.1957
     70  OH        34.3990   -8.5700   77.3390 O.3   157  TYR157     -0.2866
     71  N         35.5810  -14.2460   75.0060 N.3   160  MET160     -0.1245
     72  CA        34.7190  -13.2230   75.5830 C.3   160  MET160      0.1570
     73  C         34.5080  -12.1120   74.5170 C.2   160  MET160      0.2261
     74  O         33.3980  -11.5700   74.3570 O.2   160  MET160     -0.2867
     75  CB        35.2950  -12.6680   76.8850 C.3   160  MET160      0.0387
     76  CG        34.3020  -11.7960   77.6410 C.3   160  MET160      0.0595
     77  SD        32.8580  -12.7340   78.1450 S.3   160  MET160     -0.1393
     78  CE        31.6850  -11.4520   78.5670 C.3   160  MET160      0.0692
     79  N         30.9660  -10.6500   73.0520 N.3   164  LYS164     -0.1245
     80  CA        30.6630   -9.2130   72.9690 C.3   164  LYS164      0.1561
     81  C         30.2280   -8.7470   71.5690 C.2   164  LYS164      0.2260
     82  O         29.3590   -7.8970   71.4550 O.2   164  LYS164     -0.2867
     83  CB        31.8570   -8.4100   73.4740 C.3   164  LYS164      0.0271
     84  CG        32.0430   -8.5330   75.0000 C.3   164  LYS164      0.0035
     85  CD        30.8670   -7.9460   75.7600 C.3   164  LYS164      0.0206
     86  CE        31.1390   -7.9590   77.2440 C.3   164  LYS164      0.1093
     87  NZ        30.3270   -6.9790   78.0590 N.3   164  LYS164     -0.1314
     88  N         38.9430   -1.1900   80.5050 N.3   192  PRO192     -0.2102
     89  CA        39.1420   -2.1130   81.5750 C.3   192  PRO192      0.1504
     90  C         38.9430   -1.5090   82.9500 C.2   192  PRO192      0.2575
     91  O         39.4590   -0.4360   83.2090 O.2   192  PRO192     -0.2718
     92  CB        40.6090   -2.5330   81.3870 C.3   192  PRO192      0.0282
     93  CG        41.2190   -1.5040   80.5640 C.3   192  PRO192      0.0208
     94  CD        40.1430   -1.0620   79.6620 C.3   192  PRO192      0.0893
     95  N         38.2100   -2.2230   83.8190 N.am  193  ILE193     -0.1980
     96  CA        37.9470   -1.8190   85.2050 C.3   193  ILE193      0.1595
     97  C         38.3300   -2.9430   86.1350 C.2   193  ILE193      0.2287
     98  O         38.0600   -4.1010   85.8230 O.2   193  ILE193     -0.2864
     99  CB        36.4650   -1.5230   85.4300 C.3   193  ILE193      0.0276
    100  CG1       36.0390   -0.3120   84.6120 C.3   193  ILE193      0.0022
    101  CG2       36.1410   -1.3370   86.9740 C.3   193  ILE193      0.0022
    102  CD1       36.6970    1.0060   85.0220 C.3   193  ILE193      0.0001
    103  N         38.1320   -5.4880   88.9440 N.3   195  THR195     -0.1218
    104  CA        37.0810   -6.1960   89.6610 C.3   195  THR195      0.1862
    105  C         37.6480   -7.4410   90.3480 C.2   195  THR195      0.2287
    106  O         38.0870   -7.3830   91.5020 O.2   195  THR195     -0.2866
    107  CB        35.9510   -6.6480   88.7010 C.3   195  THR195      0.1770
    108  OG1       35.5730   -5.5700   87.8300 O.3   195  THR195     -0.2211
    109  CG2       34.7230   -7.1510   89.5020 C.3   195  THR195      0.0375
    110  N         47.1330   -8.7400   79.4880 N.3   200  ILE200     -0.1245
    111  CA        46.1340   -7.8490   80.0820 C.3   200  ILE200      0.1561
    112  C         46.8170   -6.6560   80.7300 C.2   200  ILE200      0.2260
    113  O         46.3410   -5.5290   80.5810 O.2   200  ILE200     -0.2867
    114  CB        45.2470   -8.5600   81.1240 C.3   200  ILE200      0.0252
    115  CG1       44.5570   -9.7590   80.4740 C.3   200  ILE200      0.0019
    116  CG2       44.1930   -7.6160   81.6580 C.3   200  ILE200      0.0019
    117  CD1       44.0490  -10.7780   81.4510 C.3   200  ILE200      0.0001
    118  N         47.6670   -4.3170   78.1290 N.3   203  LEU203     -0.1231
    119  CA        46.4440   -3.7540   77.5780 C.3   203  LEU203      0.1693
    120  C         45.9050   -2.6120   78.4330 C.2   203  LEU203      0.2591
    121  O         45.5000   -1.5750   77.9140 O.2   203  LEU203     -0.2718
    122  CB        45.3610   -4.8350   77.4790 C.3   203  LEU203      0.0284
    123  CG        44.3630   -4.5790   76.3570 C.3   203  LEU203      0.0019
    124  CD1       44.8920   -5.2440   75.0920 C.3   203  LEU203      0.0001
    125  CD2       42.9790   -5.0870   76.6980 C.3   203  LEU203      0.0001
    126  N         45.8680   -2.8180   79.7420 N.am  204  GLU204     -0.1979
    127  CA        45.4090   -1.7800   80.6520 C.3   204  GLU204      0.1602
    128  C         46.3600   -0.5860   80.5970 C.2   204  GLU204      0.2287
    129  O         45.9220    0.5630   80.6170 O.2   204  GLU204     -0.2864
    130  CB        45.3390   -2.3110   82.0760 C.3   204  GLU204      0.0415
    131  CG        44.3570   -3.4680   82.2670 C.3   204  GLU204      0.1163
    132  CD        44.3900   -4.0370   83.6790 C.2   204  GLU204      0.3649
    133  OE1       43.7400   -5.0920   83.9330 O.co2 204  GLU204     -0.2457
    134  OE2       45.0720   -3.4230   84.5330 O.co2 204  GLU204     -0.2457
@<TRIPOS>BOND
     1    82    81    2
     2    81    80    1
     3    47    53    1
     4    47    48    1
     5    80    79    1
     6    80    83    1
     7    53    52    1
     8    83    84    1
     9    48    51    1
    10    48    49    1
    11    39    38    2
    12    51    52    1
    13    38    37    1
    14    74    73    2
    15    73    72    1
    16    49    50    2
    17    49    54   am
    18    84    85    1
    19    71    72    1
    20   124   123    1
    21    66    68   ar
    22    66    64   ar
    23    61    62    2
    24    61    60    1
    25    54    55    1
    26    68    69   ar
    27    72    75    1
    28    37    36    1
    29    37    40    1
    30    63    64    1
    31    63    60    1
    32    85    86    1
    33    42    44   ar
    34    42    41   ar
    35    64    65   ar
    36    44    46   ar
    37    60    59    1
    38    23    22    1
    39    59    56   am
    40   123   125    1
    41   123   122    1
    42    40    41    1
    43    56    57    2
    44    56    55    1
    45    41    43   ar
    46    55    58    1
    47    75    76    1
    48    46    45   ar
    49    69    70    1
    50    69    67   ar
    51    22    21    1
    52    86    87    1
    53    43    45   ar
    54    65    67   ar
    55   122   119    1
    56   119   118    1
    57   119   120    1
    58    35    34    2
    59    76    77    1
    60    24    25    1
    61   121   120    2
    62    21    20    1
    63    25    28    1
    64    25    26    1
    65    77    78    1
    66   120   126   am
    67    32    26   am
    68    32    33    1
    69    34    33    1
    70    28    29    1
    71    26    27    2
    72    29    30    1
    73    20    17    1
    74   110   111    1
    75    94    88    1
    76    94    93    1
    77   126   127    1
    78     8     7    2
    79    30    31    1
    80   111   112    1
    81   111   114    1
    82    17    18    1
    83    17    16    1
    84   115   114    1
    85   115   117    1
    86    88    89    1
    87    93    92    1
    88   113   112    2
    89   128   129    2
    90   128   127    1
    91   127   130    1
    92     7    16   am
    93     7     6    1
    94    18    19    2
    95   114   116    1
    96    92    89    1
    97    89    90    1
    98     5     6    1
    99     5     3   am
   100     2     3    1
   101     2     1    1
   102   130   131    1
   103     6     9    1
   104   131   132    1
   105    12    14   ar
   106    12    10   ar
   107     3     4    2
   108    14    15   ar
   109     9    10    1
   110    90    91    2
   111    90    95   am
   112    10    11   ar
   113   132   133   ar
   114   132   134   ar
   115    15    13   ar
   116    95    96    1
   117    11    13   ar
   118   100   102    1
   119   100    99    1
   120    96    99    1
   121    96    97    1
   122    99   101    1
   123    98    97    2
   124   108   107    1
   125   107   109    1
   126   107   104    1
   127   103   104    1
   128   104   105    1
   129   105   106    2
