@<TRIPOS>MOLECULE
tmp/2b37D00.pdb
 149 144 0 0 0
SMALL
GASTEIGER

@<TRIPOS>ATOM
      1  N         47.7190  -11.7320  107.3000 N.3    95  GLY95      -0.1210
      2  CA        47.9830  -11.7880  105.8600 C.3    95  GLY95       0.1956
      3  C         48.8870  -12.9390  105.5190 C.2    95  GLY95       0.2612
      4  O         49.5810  -13.4570  106.3800 O.2    95  GLY95      -0.2717
      5  N         48.8760  -13.3210  104.2520 N.am   96  PHE96      -0.1962
      6  CA        49.7440  -14.3690  103.7410 C.3    96  PHE96       0.1771
      7  C         49.8520  -14.3100  102.2070 C.2    96  PHE96       0.2619
      8  O         48.8890  -14.0270  101.5060 O.2    96  PHE96      -0.2715
      9  CB        49.2150  -15.7210  104.1730 C.3    96  PHE96       0.0574
     10  CG        49.9930  -16.8870  103.6260 C.ar   96  PHE96      -0.0200
     11  CD1       51.2710  -17.1650  104.0920 C.ar   96  PHE96      -0.0042
     12  CD2       49.4510  -17.6980  102.6500 C.ar   96  PHE96      -0.0042
     13  CE1       51.9780  -18.2150  103.6130 C.ar   96  PHE96      -0.0003
     14  CE2       50.1550  -18.7720  102.1750 C.ar   96  PHE96      -0.0003
     15  CZ        51.4230  -19.0400  102.6530 C.ar   96  PHE96      -0.0000
     16  N         51.0440  -14.5370  101.7050 N.am   97  MET97      -0.1977
     17  CA        51.2490  -14.6840  100.2900 C.3    97  MET97       0.1605
     18  C         52.4130  -15.6310  100.0470 C.2    97  MET97       0.2287
     19  O         53.5130  -15.3950  100.5510 O.2    97  MET97      -0.2864
     20  CB        51.5870  -13.3370   99.6650 C.3    97  MET97       0.0413
     21  CG        51.6300  -13.3840   98.1240 C.3    97  MET97       0.0598
     22  SD        50.0640  -14.0140   97.4840 S.3    97  MET97      -0.1393
     23  CE        49.0810  -12.5610   97.8090 C.3    97  MET97       0.0692
     24  N         55.1500  -12.9420   95.6950 N.3   102  MET102     -0.1245
     25  CA        55.6180  -11.8490   96.5050 C.3   102  MET102      0.1570
     26  C         57.0930  -11.9440   96.7520 C.2   102  MET102      0.2261
     27  O         57.5710  -12.9580   97.2250 O.2   102  MET102     -0.2867
     28  CB        54.8600  -11.9120   97.8280 C.3   102  MET102      0.0387
     29  CG        55.1780  -10.8760   98.7900 C.3   102  MET102      0.0595
     30  SD        54.0980  -11.0080  100.2090 S.3   102  MET102     -0.1393
     31  CE        54.9590   -9.8610  101.2970 C.3   102  MET102      0.0692
     32  N         46.0700   -2.6850  106.5770 N.3   147  ASP147     -0.1225
     33  CA        46.1800   -2.5230  105.1490 C.3   147  ASP147      0.1805
     34  C         47.5560   -1.9160  104.8030 C.2   147  ASP147      0.2597
     35  O         48.2530   -1.3730  105.6650 O.2   147  ASP147     -0.2718
     36  CB        45.0300   -1.6020  104.6850 C.3   147  ASP147      0.1424
     37  CG        44.9440   -1.4410  103.1730 C.2   147  ASP147      0.3668
     38  OD1       45.5080   -2.2640  102.4250 O.co2 147  ASP147     -0.2456
     39  OD2       44.2850   -0.4720  102.7440 O.co2 147  ASP147     -0.2456
     40  N         47.9690   -2.1080  103.5630 N.am  148  PHE148     -0.1976
     41  CA        49.1450   -1.4530  103.0350 C.3   148  PHE148      0.1639
     42  C         48.6320   -0.9060  101.7430 C.2   148  PHE148      0.2290
     43  O         48.0390   -1.6450  100.9360 O.2   148  PHE148     -0.2864
     44  CB        50.3120   -2.4300  102.8310 C.3   148  PHE148      0.0560
     45  CG        51.6340   -1.7610  102.4560 C.ar  148  PHE148     -0.0200
     46  CD1       52.1450   -1.8570  101.1350 C.ar  148  PHE148     -0.0042
     47  CD2       52.3740   -1.0790  103.4000 C.ar  148  PHE148     -0.0042
     48  CE1       53.4020   -1.2460  100.7580 C.ar  148  PHE148     -0.0003
     49  CE2       53.6130   -0.4640  103.0520 C.ar  148  PHE148     -0.0003
     50  CZ        54.1260   -0.5600  101.7030 C.ar  148  PHE148     -0.0000
     51  N         54.1230   -1.3640   92.6700 N.3   154  MET154     -0.1231
     52  CA        55.4430   -1.2520   93.2480 C.3   154  MET154      0.1687
     53  C         56.2600   -2.5280   93.0980 C.2   154  MET154      0.2434
     54  O         55.7120   -3.5890   92.8590 O.2   154  MET154     -0.2733
     55  CB        55.3040   -0.9220   94.7220 C.3   154  MET154      0.0400
     56  CG        54.6820   -2.0370   95.5560 C.3   154  MET154      0.0596
     57  SD        54.4070   -1.4470   97.2730 S.3   154  MET154     -0.1393
     58  CE        52.9840   -0.4190   97.0850 C.3   154  MET154      0.0692
     59  N         57.5710   -2.4360   93.2860 N.am  155  PRO155     -0.2718
     60  CA        58.3320   -3.6560   93.2830 C.3   155  PRO155      0.1535
     61  C         58.0090   -4.5350   94.5000 C.2   155  PRO155      0.2598
     62  O         57.5960   -4.0200   95.5500 O.2   155  PRO155     -0.2715
     63  CB        59.7990   -3.1790   93.3840 C.3   155  PRO155      0.0310
     64  CG        59.7740   -1.6790   93.2220 C.3   155  PRO155      0.0237
     65  CD        58.3980   -1.2420   93.5490 C.3   155  PRO155      0.0939
     66  N         58.1430   -5.8520   94.3000 N.am  156  ALA156     -0.1964
     67  CA        58.1200   -6.8650   95.3550 C.3   156  ALA156      0.1728
     68  C         56.7360   -7.2920   95.9330 C.2   156  ALA156      0.2616
     69  O         56.4290   -8.4840   96.0110 O.2   156  ALA156     -0.2715
     70  CB        59.0460   -6.4550   96.4570 C.3   156  ALA156      0.0334
     71  N         55.9240   -6.3370   96.3410 N.am  157  TYR157     -0.1974
     72  CA        54.6620   -6.6520   97.0130 C.3   157  TYR157      0.1639
     73  C         53.7660   -7.4530   96.0660 C.2   157  TYR157      0.2290
     74  O         53.0780   -8.4050   96.4700 O.2   157  TYR157     -0.2864
     75  CB        54.0190   -5.3530   97.4780 C.3   157  TYR157      0.0560
     76  CG        53.0830   -5.4540   98.6330 C.ar  157  TYR157     -0.0198
     77  CD1       53.4750   -6.0860   99.8230 C.ar  157  TYR157     -0.0009
     78  CD2       51.8290   -4.8180   98.5990 C.ar  157  TYR157     -0.0009
     79  CE1       52.6250   -6.1600  100.9090 C.ar  157  TYR157      0.0417
     80  CE2       50.9830   -4.8630   99.6840 C.ar  157  TYR157      0.0417
     81  CZ        51.3930   -5.5400  100.8510 C.ar  157  TYR157      0.1957
     82  OH        50.5500   -5.5950  101.9300 O.3   157  TYR157     -0.2866
     83  N         50.4500   -9.4880   96.7410 N.3   160  MET160     -0.1245
     84  CA        49.8980   -9.0040   98.0170 C.3   160  MET160      0.1570
     85  C         49.2270   -7.6740   97.7730 C.2   160  MET160      0.2261
     86  O         48.1830   -7.3590   98.3580 O.2   160  MET160     -0.2867
     87  CB        50.9880   -8.8310   99.0690 C.3   160  MET160      0.0387
     88  CG        50.4610   -8.6460  100.4810 C.3   160  MET160      0.0595
     89  SD        49.5690  -10.0700  101.0430 S.3   160  MET160     -0.1393
     90  CE        49.1890   -9.6160  102.7120 C.3   160  MET160      0.0692
     91  N         45.6320   -6.7920   98.9760 N.3   164  LYS164     -0.1245
     92  CA        45.2360   -5.6010   99.7490 C.3   164  LYS164      0.1561
     93  C         44.1050   -4.7840   99.0650 C.2   164  LYS164      0.2260
     94  O         43.1220   -4.3890   99.7290 O.2   164  LYS164     -0.2867
     95  CB        46.4450   -4.7120  100.0580 C.3   164  LYS164      0.0271
     96  CG        47.4510   -5.3160  101.0910 C.3   164  LYS164      0.0035
     97  CD        46.7470   -5.7860  102.3950 C.3   164  LYS164      0.0206
     98  CE        47.7400   -5.9220  103.5730 C.3   164  LYS164      0.1093
     99  NZ        47.1080   -6.4250  104.8300 N.3   164  LYS164     -0.1314
    100  N         52.4180    2.2760  107.3610 N.3   191  GLY191     -0.1210
    101  CA        53.6900    2.3130  106.6100 C.3   191  GLY191      0.1940
    102  C         54.4480    1.0140  106.9090 C.2   191  GLY191      0.2454
    103  O         53.9810    0.2040  107.6820 O.2   191  GLY191     -0.2732
    104  N         55.6410    0.8320  106.3410 N.am  192  PRO192     -0.2717
    105  CA        56.3460   -0.4450  106.5550 C.3   192  PRO192      0.1535
    106  C         56.9830   -0.5990  107.9460 C.2   192  PRO192      0.2598
    107  O         57.6380    0.3010  108.4170 O.2   192  PRO192     -0.2715
    108  CB        57.4320   -0.4050  105.4850 C.3   192  PRO192      0.0310
    109  CG        57.7440    1.0250  105.3700 C.3   192  PRO192      0.0237
    110  CD        56.4360    1.7470  105.5110 C.3   192  PRO192      0.0939
    111  N         56.7920   -1.7510  108.5680 N.am  193  ILE193     -0.1978
    112  CA        57.3760   -2.0480  109.8780 C.3   193  ILE193      0.1596
    113  C         58.2590   -3.2880  109.7420 C.2   193  ILE193      0.2287
    114  O         57.8490   -4.2380  109.0950 O.2   193  ILE193     -0.2864
    115  CB        56.2810   -2.3470  110.8940 C.3   193  ILE193      0.0276
    116  CG1       55.3330   -1.1720  111.0020 C.3   193  ILE193      0.0022
    117  CG2       56.8680   -2.6430  112.2540 C.3   193  ILE193      0.0022
    118  CD1       56.0230    0.1590  111.3700 C.3   193  ILE193      0.0001
    119  N         59.0020   -6.5050  110.5330 N.3   195  THR195     -0.1218
    120  CA        58.1570   -7.4460  111.2650 C.3   195  THR195      0.1862
    121  C         58.5210   -8.9440  111.0550 C.2   195  THR195      0.2287
    122  O         58.5480   -9.4760  109.9260 O.2   195  THR195     -0.2866
    123  CB        56.6680   -7.1830  110.9030 C.3   195  THR195      0.1770
    124  OG1       55.8260   -7.8020  111.8660 O.3   195  THR195     -0.2211
    125  CG2       56.3310   -7.7140  109.4970 C.3   195  THR195      0.0375
    126  N         66.0170   -2.6560   97.4780 N.3   206  ILE206     -0.1245
    127  CA        64.5820   -2.3380   97.7370 C.3   206  ILE206      0.1561
    128  C         64.3360   -1.6950   99.1420 C.2   206  ILE206      0.2260
    129  O         63.2640   -1.1680   99.4070 O.2   206  ILE206     -0.2867
    130  CB        63.6840   -3.5970   97.4520 C.3   206  ILE206      0.0252
    131  CG1       63.6770   -3.8940   95.9290 C.3   206  ILE206      0.0019
    132  CG2       62.2600   -3.4050   97.9660 C.3   206  ILE206      0.0019
    133  CD1       63.0220   -5.2390   95.5180 C.3   206  ILE206      0.0001
    134  N         65.2240    0.9820   99.6430 N.3   208  LEU208     -0.1231
    135  CA        64.8400    2.3010   99.1820 C.3   208  LEU208      0.1693
    136  C         63.5470    2.7700   99.8220 C.2   208  LEU208      0.2591
    137  O         63.3050    3.9650   99.8890 O.2   208  LEU208     -0.2718
    138  CB        64.6860    2.2910   97.6700 C.3   208  LEU208      0.0284
    139  CG        64.3380    3.6200   97.0200 C.3   208  LEU208      0.0019
    140  CD1       65.3510    4.6930   97.3830 C.3   208  LEU208      0.0001
    141  CD2       64.2600    3.4440   95.5280 C.3   208  LEU208      0.0001
    142  N         62.7110    1.8200  100.2680 N.am  209  LEU209     -0.1980
    143  CA        61.4870    2.1290  101.0290 C.3   209  LEU209      0.1596
    144  C         61.7430    2.8310  102.3200 C.2   209  LEU209      0.2287
    145  O         61.1290    3.8470  102.6140 O.2   209  LEU209     -0.2864
    146  CB        60.7730    0.8600  101.4100 C.3   209  LEU209      0.0297
    147  CG        59.8670    0.2560  100.3850 C.3   209  LEU209      0.0022
    148  CD1       59.4250   -1.0920  100.9190 C.3   209  LEU209      0.0001
    149  CD2       58.6670    1.1760  100.0830 C.3   209  LEU209      0.0001
@<TRIPOS>BOND
     1    51    52    1
     2    54    53    2
     3    53    52    1
     4    53    59   am
     5    64    63    1
     6    64    65    1
     7    52    55    1
     8    60    59    1
     9    60    63    1
    10    60    61    1
    11    59    65    1
    12    66    61   am
    13    66    67    1
    14    61    62    2
    15    55    56    1
    16    67    68    1
    17    67    70    1
    18   133   131    1
    19   141   139    1
    20    56    57    1
    21    24    25    1
    22   131   130    1
    23    68    69    2
    24    68    71   am
    25    73    74    2
    26    73    72    1
    27    71    72    1
    28    25    26    1
    29    25    28    1
    30    83    84    1
    31    26    27    2
    32    72    75    1
    33   139   140    1
    34   139   138    1
    35    58    57    1
    36   130   127    1
    37   130   132    1
    38   126   127    1
    39    75    76    1
    40    22    23    1
    41    22    21    1
    42   138   135    1
    43   127   128    1
    44    85    84    1
    45    85    86    2
    46    28    29    1
    47    84    87    1
    48    21    20    1
    49    78    76   ar
    50    78    80   ar
    51    76    77   ar
    52    29    30    1
    53    91    92    1
    54    93    94    2
    55    93    92    1
    56    87    88    1
    57   128   129    2
    58   135   134    1
    59   135   136    1
    60    20    17    1
    61    80    81   ar
    62    92    95    1
    63   136   137    2
    64   136   142   am
    65    77    79   ar
    66    18    17    1
    67    18    19    2
    68    95    96    1
    69   149   147    1
    70    30    31    1
    71   142   143    1
    72    17    16    1
    73   147   148    1
    74   147   146    1
    75    88    89    1
    76    48    46   ar
    77    48    50   ar
    78    81    79   ar
    79    81    82    1
    80    43    42    2
    81   143   146    1
    82   143   144    1
    83    89    90    1
    84    96    97    1
    85    46    45   ar
    86     8     7    2
    87    50    49   ar
    88    16     7   am
    89    42    41    1
    90    14    12   ar
    91    14    15   ar
    92     7     6    1
    93   144   145    2
    94    97    98    1
    95    38    37   ar
    96    45    44    1
    97    45    47   ar
    98    12    10   ar
    99    15    13   ar
   100    39    37   ar
   101    44    41    1
   102    41    40    1
   103    49    47   ar
   104    37    36    1
   105    40    34   am
   106    98    99    1
   107    13    11   ar
   108    10    11   ar
   109    10     9    1
   110     6     9    1
   111     6     5    1
   112     5     3   am
   113    36    33    1
   114    34    33    1
   115    34    35    2
   116    33    32    1
   117   109   108    1
   118   109   110    1
   119   108   105    1
   120   110   104    1
   121     3     2    1
   122     3     4    2
   123     2     1    1
   124   104   105    1
   125   104   102   am
   126   105   106    1
   127   101   102    1
   128   101   100    1
   129   102   103    2
   130   106   107    2
   131   106   111   am
   132   111   112    1
   133   114   113    2
   134   125   123    1
   135   113   112    1
   136   112   115    1
   137   122   121    2
   138   119   120    1
   139   115   116    1
   140   115   117    1
   141   123   120    1
   142   123   124    1
   143   116   118    1
   144   121   120    1
