@<TRIPOS>MOLECULE
tmp/2b3bF00.pdb
 143 144 0 0 0
SMALL
GASTEIGER

@<TRIPOS>ATOM
      1  N        -55.9290   70.1380   24.3480 N.3     8  TRP8       -0.1227
      2  CA       -54.9900   70.9720   23.5920 C.3     8  TRP8        0.1737
      3  C        -55.0470   70.6950   22.0970 C.2     8  TRP8        0.2595
      4  O        -54.0680   70.9430   21.3660 O.2     8  TRP8       -0.2718
      5  CB       -53.5700   70.9020   24.1470 C.3     8  TRP8        0.0564
      6  CG       -52.8070   69.5990   24.1690 C.ar    8  TRP8        0.0003
      7  CD1      -51.9110   69.1440   23.2330 C.ar    8  TRP8        0.0946
      8  CD2      -52.7660   68.6530   25.2510 C.ar    8  TRP8        0.0152
      9  NE1      -51.3300   67.9660   23.6590 N.ar    8  TRP8       -0.2442
     10  CE2      -51.8380   67.6390   24.8920 C.ar    8  TRP8        0.0810
     11  CE3      -53.4050   68.5800   26.4920 C.ar    8  TRP8        0.0012
     12  CZ2      -51.5570   66.5490   25.7270 C.ar    8  TRP8        0.0191
     13  CZ3      -53.1340   67.4840   27.3220 C.ar    8  TRP8        0.0001
     14  CH2      -52.1980   66.4910   26.9310 C.ar    8  TRP8        0.0015
     15  N        -56.2220   70.2690   21.6330 N.am    9  TRP9       -0.1976
     16  CA       -56.3850   69.8810   20.2410 C.3     9  TRP9        0.1640
     17  C        -56.9090   71.0800   19.4370 C.2     9  TRP9        0.2290
     18  O        -57.9530   71.0280   18.8060 O.2     9  TRP9       -0.2864
     19  CB       -57.2530   68.6170   20.1060 C.3     9  TRP9        0.0576
     20  CG       -56.5800   67.3680   20.6190 C.ar    9  TRP9        0.0006
     21  CD1      -55.2360   67.0790   20.5880 C.ar    9  TRP9        0.0946
     22  CD2      -57.2150   66.2320   21.2490 C.ar    9  TRP9        0.0152
     23  NE1      -54.9970   65.8470   21.1590 N.ar    9  TRP9       -0.2442
     24  CE2      -56.1900   65.2990   21.5610 C.ar    9  TRP9        0.0810
     25  CE3      -58.5350   65.9220   21.5810 C.ar    9  TRP9        0.0012
     26  CZ2      -56.4540   64.0670   22.1800 C.ar    9  TRP9        0.0191
     27  CZ3      -58.8030   64.7070   22.2000 C.ar    9  TRP9        0.0001
     28  CH2      -57.7700   63.7910   22.4850 C.ar    9  TRP9        0.0015
     29  N        -54.5100   70.3310   14.9270 N.3    13  GLU13      -0.1245
     30  CA       -54.6950   69.1350   15.7250 C.3    13  GLU13       0.1567
     31  C        -56.1960   68.8590   15.9890 C.2    13  GLU13       0.2260
     32  O        -56.5300   67.8290   16.5750 O.2    13  GLU13      -0.2867
     33  CB       -53.9820   69.2620   17.0530 C.3    13  GLU13       0.0388
     34  CG       -52.4930   69.4730   16.9160 C.3    13  GLU13       0.1160
     35  CD       -51.7360   68.8320   18.0810 C.2    13  GLU13       0.3649
     36  OE1      -51.9950   67.6410   18.3130 O.co2  13  GLU13      -0.2457
     37  OE2      -50.8730   69.5010   18.7190 O.co2  13  GLU13      -0.2457
     38  N        -48.5220   72.7340   21.8470 N.3    41  GLY41      -0.1210
     39  CA       -48.0320   71.3710   21.6990 C.3    41  GLY41       0.1956
     40  C        -47.7690   70.6570   23.0190 C.2    41  GLY41       0.2611
     41  O        -47.2780   71.2640   23.9940 O.2    41  GLY41      -0.2717
     42  N        -48.1420   69.3710   23.0420 N.am   42  ALA42      -0.1979
     43  CA       -47.8660   68.4650   24.1530 C.3    42  ALA42       0.1597
     44  C        -48.5410   68.8530   25.4820 C.2    42  ALA42       0.2287
     45  O        -48.1770   68.3240   26.5270 O.2    42  ALA42      -0.2864
     46  CB       -46.3450   68.2990   24.3210 C.3    42  ALA42       0.0319
     47  N        -53.1180   62.4480   29.9700 N.3    66  HIS66      -0.1241
     48  CA       -52.3620   61.2520   29.6390 C.3    66  HIS66       0.1621
     49  C        -52.5420   60.1290   30.6670 C.2    66  HIS66       0.2264
     50  O        -52.4150   60.3450   31.8720 O.2    66  HIS66      -0.2867
     51  CB       -50.8830   61.5760   29.5270 C.3    66  HIS66       0.0745
     52  CG       -50.5220   62.4180   28.3300 C.ar   66  HIS66       0.0817
     53  ND1      -49.8020   63.5880   28.4330 N.ar   66  HIS66      -0.2268
     54  CD2      -50.7410   62.2280   27.0070 C.ar   66  HIS66       0.1154
     55  CE1      -49.6040   64.0870   27.2220 C.ar   66  HIS66       0.1986
     56  NE2      -50.1800   63.2910   26.3410 N.ar   66  HIS66      -0.2212
     57  N        -50.7860   56.5870   21.0640 N.3   119  HIS119     -0.1241
     58  CA       -49.7800   57.2610   20.2230 C.3   119  HIS119      0.1621
     59  C        -48.4230   56.6070   20.4650 C.2   119  HIS119      0.2264
     60  O        -48.1560   56.0270   21.5220 O.2   119  HIS119     -0.2867
     61  CB       -49.6890   58.7780   20.5060 C.3   119  HIS119      0.0745
     62  CG       -50.5770   59.6300   19.6550 C.ar  119  HIS119      0.0817
     63  ND1      -50.4780   59.6860   18.2780 N.ar  119  HIS119     -0.2268
     64  CD2      -51.5330   60.5240   19.9980 C.ar  119  HIS119      0.1154
     65  CE1      -51.3640   60.5530   17.8180 C.ar  119  HIS119      0.1986
     66  NE2      -52.0240   61.0630   18.8400 N.ar  119  HIS119     -0.2212
     67  N        -40.1980   71.2460   24.2800 N.3   167  TRP167     -0.1241
     68  CA       -40.7490   69.9030   24.5280 C.3   167  TRP167      0.1605
     69  C        -40.4030   68.9100   23.4000 C.2   167  TRP167      0.2264
     70  O        -40.2550   67.7180   23.6630 O.2   167  TRP167     -0.2867
     71  CB       -42.2670   69.9430   24.8250 C.3   167  TRP167      0.0550
     72  CG       -43.1210   70.1270   23.6330 C.ar  167  TRP167      0.0003
     73  CD1      -43.6820   71.2750   23.2150 C.ar  167  TRP167      0.0946
     74  CD2      -43.5260   69.1110   22.7060 C.ar  167  TRP167      0.0152
     75  NE1      -44.4000   71.0640   22.0650 N.ar  167  TRP167     -0.2442
     76  CE2      -44.3340   69.7320   21.7420 C.ar  167  TRP167      0.0810
     77  CE3      -43.3090   67.7360   22.6180 C.ar  167  TRP167      0.0012
     78  CZ2      -44.9100   69.0220   20.6860 C.ar  167  TRP167      0.0191
     79  CZ3      -43.8630   67.0360   21.5790 C.ar  167  TRP167      0.0001
     80  CH2      -44.6480   67.6810   20.6120 C.ar  167  TRP167      0.0015
     81  N        -44.0690   71.9490   16.7290 N.3   224  TRP224     -0.1241
     82  CA       -43.7720   70.6080   16.1990 C.3   224  TRP224      0.1605
     83  C        -44.1590   70.4680   14.6990 C.2   224  TRP224      0.2264
     84  O        -43.4360   69.8150   13.9460 O.2   224  TRP224     -0.2867
     85  CB       -44.4140   69.5070   17.0500 C.3   224  TRP224      0.0550
     86  CG       -45.8960   69.3520   16.9290 C.ar  224  TRP224      0.0003
     87  CD1      -46.8150   69.8250   17.7770 C.ar  224  TRP224      0.0946
     88  CD2      -46.6120   68.6180   15.9300 C.ar  224  TRP224      0.0152
     89  NE1      -48.0680   69.4770   17.3730 N.ar  224  TRP224     -0.2442
     90  CE2      -47.9760   68.7200   16.2420 C.ar  224  TRP224      0.0810
     91  CE3      -46.2370   67.9160   14.7910 C.ar  224  TRP224      0.0012
     92  CZ2      -48.9740   68.1420   15.4680 C.ar  224  TRP224      0.0191
     93  CZ3      -47.2430   67.3130   14.0230 C.ar  224  TRP224      0.0001
     94  CH2      -48.5900   67.4570   14.3590 C.ar  224  TRP224      0.0015
     95  N        -48.8650   61.7280   15.8770 N.3   244  TRP244     -0.1241
     96  CA       -49.7200   62.8740   15.4880 C.3   244  TRP244      0.1605
     97  C        -49.1610   63.5540   14.2100 C.2   244  TRP244      0.2264
     98  O        -49.8880   64.2450   13.4570 O.2   244  TRP244     -0.2867
     99  CB       -49.8740   63.9020   16.6320 C.3   244  TRP244      0.0550
    100  CG       -48.6130   64.2440   17.3600 C.ar  244  TRP244      0.0003
    101  CD1      -47.7230   65.2480   17.0420 C.ar  244  TRP244      0.0946
    102  CD2      -48.0850   63.6020   18.5400 C.ar  244  TRP244      0.0152
    103  NE1      -46.6630   65.2520   17.9350 N.ar  244  TRP244     -0.2442
    104  CE2      -46.8680   64.2700   18.8770 C.ar  244  TRP244      0.0810
    105  CE3      -48.5230   62.5470   19.3520 C.ar  244  TRP244      0.0012
    106  CZ2      -46.0950   63.9100   19.9710 C.ar  244  TRP244      0.0191
    107  CZ3      -47.7430   62.1960   20.4640 C.ar  244  TRP244      0.0001
    108  CH2      -46.5410   62.8640   20.7520 C.ar  244  TRP244      0.0015
    109  N        -47.9570   56.2980   24.5080 N.3   276  LEU276     -0.1245
    110  CA       -48.6770   57.2100   25.3630 C.3   276  LEU276      0.1561
    111  C        -50.1300   57.0770   24.9690 C.2   276  LEU276      0.2260
    112  O        -50.4250   56.5340   23.9340 O.2   276  LEU276     -0.2867
    113  CB       -48.2280   58.6560   25.1720 C.3   276  LEU276      0.0270
    114  CG       -48.3290   59.1810   23.7370 C.3   276  LEU276      0.0019
    115  CD1      -49.2430   60.4290   23.6710 C.3   276  LEU276      0.0001
    116  CD2      -46.9330   59.4070   23.1390 C.3   276  LEU276      0.0001
    117  N        -53.9480   59.3420   25.0390 N.3   278  ASP278     -0.1239
    118  CA       -54.8740   60.4140   25.4360 C.3   278  ASP278      0.1674
    119  C        -56.1570   59.8010   25.9950 C.2   278  ASP278      0.2266
    120  O        -56.6980   58.8590   25.4180 O.2   278  ASP278     -0.2867
    121  CB       -55.2100   61.3490   24.2890 C.3   278  ASP278      0.1410
    122  CG       -53.9740   62.0720   23.7610 C.2   278  ASP278      0.3668
    123  OD1      -53.2950   62.7440   24.5790 O.co2 278  ASP278     -0.2456
    124  OD2      -53.6910   61.9290   22.5500 O.co2 278  ASP278     -0.2456
    125  N        -56.2870   61.3900   13.3430 N.3   312  LYS312     -0.1245
    126  CA       -55.3080   61.8590   14.3100 C.3   312  LYS312      0.1561
    127  C        -53.8990   61.3550   14.0350 C.2   312  LYS312      0.2260
    128  O        -52.9040   62.0340   14.3890 O.2   312  LYS312     -0.2867
    129  CB       -55.7610   61.3740   15.6850 C.3   312  LYS312      0.0271
    130  CG       -54.9900   61.8880   16.8690 C.3   312  LYS312      0.0035
    131  CD       -55.4690   63.2390   17.2990 C.3   312  LYS312      0.0206
    132  CE       -54.8650   63.6440   18.6450 C.3   312  LYS312      0.1093
    133  NZ       -53.3560   63.6580   18.5890 N.3   312  LYS312     -0.1314
    134  N        -44.8540   62.4980   27.4100 N.3   348  HIS348     -0.1241
    135  CA       -46.2920   62.3960   27.2360 C.3   348  HIS348      0.1621
    136  C        -46.9840   61.5180   28.3040 C.2   348  HIS348      0.2264
    137  O        -47.9790   60.8320   28.0300 O.2   348  HIS348     -0.2867
    138  CB       -46.5790   61.9500   25.7970 C.3   348  HIS348      0.0745
    139  CG       -45.8820   62.8100   24.7840 C.ar  348  HIS348      0.0817
    140  ND1      -46.3800   64.0330   24.3820 N.ar  348  HIS348     -0.2268
    141  CD2      -44.6670   62.6920   24.2050 C.ar  348  HIS348      0.1154
    142  CE1      -45.5330   64.5930   23.5340 C.ar  348  HIS348      0.1986
    143  NE2      -44.4770   63.8090   23.4240 N.ar  348  HIS348     -0.2212
@<TRIPOS>BOND
     1   125   126    1
     2    98    97    2
     3    84    83    2
     4    93    94   ar
     5    93    91   ar
     6   127   126    1
     7   127   128    2
     8    97    96    1
     9   126   129    1
    10    94    92   ar
    11    83    82    1
    12    91    88   ar
    13    29    30    1
    14    92    90   ar
    15    96    95    1
    16    96    99    1
    17   129   130    1
    18    30    31    1
    19    30    33    1
    20    88    90   ar
    21    88    86   ar
    22    31    32    2
    23    82    81    1
    24    82    85    1
    25    90    89   ar
    26    99   100    1
    27   130   131    1
    28    34    33    1
    29    34    35    1
    30    86    85    1
    31    86    87   ar
    32   101   100   ar
    33   101   103   ar
    34   131   132    1
    35   100   102   ar
    36    89    87   ar
    37    65    63   ar
    38    65    66   ar
    39   103   104   ar
    40    35    36   ar
    41    35    37   ar
    42    63    62   ar
    43   102   104   ar
    44   102   105   ar
    45   133   132    1
    46    18    17    2
    47    66    64   ar
    48   104   106   ar
    49   105   107   ar
    50    17    16    1
    51    62    64   ar
    52    62    61    1
    53   106   108   ar
    54    19    16    1
    55    19    20    1
    56    58    59    1
    57    58    61    1
    58    58    57    1
    59    16    15    1
    60   107   108   ar
    61    59    60    2
    62    21    20   ar
    63    21    23   ar
    64    80    78   ar
    65    80    79   ar
    66    20    22   ar
    67    78    76   ar
    68    23    24   ar
    69    22    24   ar
    70    22    25   ar
    71     4     3    2
    72    24    26   ar
    73    79    77   ar
    74    25    27   ar
    75    15     3   am
    76    39    38    1
    77    39    40    1
    78    76    75   ar
    79    76    74   ar
    80    75    73   ar
    81     3     2    1
    82    26    28   ar
    83    27    28   ar
    84   124   122   ar
    85    77    74   ar
    86    74    72   ar
    87    40    42   am
    88    40    41    2
    89    42    43    1
    90   116   114    1
    91    73    72   ar
    92     7     9   ar
    93     7     6   ar
    94    69    70    2
    95    69    68    1
    96   143   142   ar
    97   143   141   ar
    98   142   140   ar
    99     2     5    1
   100     2     1    1
   101    72    71    1
   102     9    10   ar
   103   115   114    1
   104   114   113    1
   105   122   121    1
   106   122   123   ar
   107   112   111    2
   108     5     6    1
   109    43    46    1
   110    43    44    1
   111     6     8   ar
   112   141   139   ar
   113    67    68    1
   114   121   118    1
   115   140   139   ar
   116   109   110    1
   117    68    71    1
   118   139   138    1
   119    10     8   ar
   120    10    12   ar
   121   111   110    1
   122   117   118    1
   123   113   110    1
   124     8    11   ar
   125   120   119    2
   126   118   119    1
   127    44    45    2
   128    12    14   ar
   129   138   135    1
   130    56    54   ar
   131    56    55   ar
   132    11    13   ar
   133    14    13   ar
   134    54    52   ar
   135    55    53   ar
   136   135   134    1
   137   135   136    1
   138   137   136    2
   139    52    53   ar
   140    52    51    1
   141    51    48    1
   142    48    47    1
   143    48    49    1
   144    49    50    2
