@<TRIPOS>MOLECULE
tmp/2b3dA00.pdb
 207 209 0 0 0
SMALL
GASTEIGER

@<TRIPOS>ATOM
      1  N         16.2410   12.2850   16.5770 N.3    11  LYS11      -0.1245
      2  CA        16.2900   13.3830   15.6230 C.3    11  LYS11       0.1561
      3  C         16.3700   14.7600   16.2790 C.2    11  LYS11       0.2260
      4  O         15.4920   15.1480   17.0520 O.2    11  LYS11      -0.2867
      5  CB        15.0790   13.3200   14.6890 C.3    11  LYS11       0.0271
      6  CG        15.0940   14.3760   13.5890 C.3    11  LYS11       0.0035
      7  CD        14.1070   14.0320   12.4810 C.3    11  LYS11       0.0206
      8  CE        14.0210   15.1390   11.4330 C.3    11  LYS11       0.1093
      9  NZ        15.3160   15.3980   10.7510 N.3    11  LYS11      -0.1314
     10  N         15.9030   18.5510   16.5730 N.3    13  PHE13      -0.1227
     11  CA        14.9750   19.5390   16.0340 C.3    13  PHE13       0.1736
     12  C         14.1530   20.1700   17.1490 C.2    13  PHE13       0.2595
     13  O         13.6330   19.4730   18.0130 O.2    13  PHE13      -0.2718
     14  CB        14.0470   18.8720   15.0130 C.3    13  PHE13       0.0547
     15  CG        12.8680   19.7130   14.6030 C.ar   13  PHE13      -0.0202
     16  CD1       11.6280   19.5380   15.2110 C.ar   13  PHE13      -0.0042
     17  CD2       12.9840   20.6490   13.5730 C.ar   13  PHE13      -0.0042
     18  CE1       10.5130   20.2760   14.7990 C.ar   13  PHE13      -0.0003
     19  CE2       11.8760   21.3950   13.1520 C.ar   13  PHE13      -0.0003
     20  CZ        10.6370   21.2070   13.7650 C.ar   13  PHE13      -0.0000
     21  N         14.0580   21.4960   17.1280 N.am   14  ALA14      -0.1966
     22  CA        13.2950   22.2520   18.1170 C.3    14  ALA14       0.1728
     23  C         13.1120   21.5740   19.4810 C.2    14  ALA14       0.2616
     24  O         12.1080   20.9060   19.7120 O.2    14  ALA14      -0.2715
     25  CB        11.9370   22.5920   17.5380 C.3    14  ALA14       0.0334
     26  N         14.0650   21.7670   20.3860 N.am   15  HIS15      -0.1959
     27  CA        14.0060   21.1810   21.7330 C.3    15  HIS15       0.1787
     28  C         14.4940   19.7420   21.8180 C.2    15  HIS15       0.2621
     29  O         15.0340   19.3350   22.8440 O.2    15  HIS15      -0.2715
     30  CB        12.5920   21.2630   22.3170 C.3    15  HIS15       0.0785
     31  CG        12.1950   22.6390   22.7490 C.ar   15  HIS15       0.0821
     32  ND1       10.9790   22.9120   23.3370 N.ar   15  HIS15      -0.2267
     33  CD2       12.8500   23.8220   22.6720 C.ar   15  HIS15       0.1154
     34  CE1       10.9000   24.2040   23.6020 C.ar   15  HIS15       0.1986
     35  NE2       12.0220   24.7800   23.2080 N.ar   15  HIS15      -0.2212
     36  N         14.2960   18.9690   20.7540 N.am   16  SER16      -0.1936
     37  CA        14.7590   17.5820   20.7320 C.3    16  SER16       0.2055
     38  C         16.1550   17.5410   20.1230 C.2    16  SER16       0.2643
     39  O         16.3790   18.0580   19.0280 O.2    16  SER16      -0.2714
     40  CB        13.8130   16.6930   19.9100 C.3    16  SER16       0.2130
     41  OG        12.6310   16.3710   20.6340 O.3    16  SER16      -0.2179
     42  N         17.0920   16.9330   20.8420 N.am   17  ASN17      -0.1957
     43  CA        18.4640   16.8240   20.3680 C.3    17  ASN17       0.1819
     44  C         18.7920   15.3960   19.9760 C.2    17  ASN17       0.2622
     45  O         19.8290   15.1350   19.3690 O.2    17  ASN17      -0.2715
     46  CB        19.4400   17.3030   21.4440 C.3    17  ASN17       0.1195
     47  CG        19.9600   18.7000   21.1720 C.2    17  ASN17       0.2630
     48  OD1       19.1870   19.6500   21.0240 O.2    17  ASN17      -0.2716
     49  ND2       21.2820   18.8320   21.0980 N.am   17  ASN17      -0.0877
     50  N         17.9020   14.4750   20.3310 N.am   18  GLY18      -0.1940
     51  CA        18.0990   13.0780   19.9960 C.3    18  GLY18       0.2014
     52  C         19.1890   12.3560   20.7680 C.2    18  GLY18       0.2639
     53  O         19.4800   11.1940   20.4700 O.2    18  GLY18      -0.2714
     54  N         19.7860   13.0230   21.7590 N.am   19  GLN19      -0.1963
     55  CA        20.8510   12.4080   22.5510 C.3    19  GLN19       0.1733
     56  C         20.3330   11.2700   23.4250 C.2    19  GLN19       0.2616
     57  O         20.9690   10.2160   23.5170 O.2    19  GLN19      -0.2715
     58  CB        21.5440   13.4420   23.4510 C.3    19  GLN19       0.0408
     59  CG        22.9320   12.9960   23.9250 C.3    19  GLN19       0.0908
     60  CD        23.4260   13.7320   25.1680 C.2    19  GLN19       0.2608
     61  OE1       22.9850   14.8470   25.4770 O.2    19  GLN19      -0.2717
     62  NE2       24.3620   13.1080   25.8810 N.am   19  GLN19      -0.0878
     63  N         19.1850   11.4710   24.0680 N.am   20  LEU20      -0.1963
     64  CA        18.6390   10.4260   24.9250 C.3    20  LEU20       0.1728
     65  C         18.3150    9.1570   24.1460 C.2    20  LEU20       0.2616
     66  O         18.6030    8.0510   24.6130 O.2    20  LEU20      -0.2715
     67  CB        17.3860   10.9050   25.6610 C.3    20  LEU20       0.0311
     68  CG        16.8080    9.8640   26.6330 C.3    20  LEU20       0.0022
     69  CD1       17.8600    9.4740   27.6890 C.3    20  LEU20       0.0001
     70  CD2       15.5630   10.4230   27.2990 C.3    20  LEU20       0.0001
     71  N         17.7240    9.3010   22.9600 N.am   21  ASN21      -0.1972
     72  CA        17.3950    8.1250   22.1610 C.3    21  ASN21       0.1688
     73  C         18.6290    7.4260   21.5990 C.2    21  ASN21       0.2292
     74  O         18.6420    6.1970   21.4590 O.2    21  ASN21      -0.2864
     75  CB        16.4160    8.4850   21.0420 C.3    21  ASN21       0.1181
     76  CG        14.9850    8.5790   21.5430 C.2    21  ASN21       0.2629
     77  OD1       14.5520    9.6220   22.0340 O.2    21  ASN21      -0.2716
     78  ND2       14.2530    7.4740   21.4520 N.am   21  ASN21      -0.0877
     79  N         21.4330    7.4030   23.1450 N.3    23  THR23      -0.1218
     80  CA        21.9370    6.7610   24.3540 C.3    23  THR23       0.1862
     81  C         21.2150    5.4400   24.5940 C.2    23  THR23       0.2287
     82  O         21.8420    4.4000   24.7160 O.2    23  THR23      -0.2866
     83  CB        21.7250    7.6510   25.5980 C.3    23  THR23       0.1770
     84  OG1       22.4300    8.8850   25.4280 O.3    23  THR23      -0.2211
     85  CG2       22.2410    6.9610   26.8430 C.3    23  THR23       0.0375
     86  N         11.2930    9.2040   20.4420 N.3    68  PRO68      -0.2102
     87  CA        10.7460   10.2220   21.3320 C.3    68  PRO68       0.1504
     88  C          9.3110   10.4830   20.9060 C.2    68  PRO68       0.2576
     89  O          8.9570   10.3070   19.7330 O.2    68  PRO68      -0.2718
     90  CB        11.6370   11.4210   21.0550 C.3    68  PRO68       0.0282
     91  CG        11.8460   11.2960   19.5580 C.3    68  PRO68       0.0208
     92  CD        12.1550    9.8150   19.4100 C.3    68  PRO68       0.0893
     93  N          8.4830   10.8790   21.8580 N.am   69  GLY69      -0.1943
     94  CA         7.1150   11.1960   21.5290 C.3    69  GLY69       0.2014
     95  C          7.1560   12.5610   20.8650 C.2    69  GLY69       0.2639
     96  O          7.7100   13.5040   21.4210 O.2    69  GLY69      -0.2714
     97  N          6.5980   12.6580   19.6630 N.am   70  TRP70      -0.1959
     98  CA         6.5530   13.9150   18.9150 C.3    70  TRP70       0.1771
     99  C          5.1050   14.1440   18.5410 C.2    70  TRP70       0.2620
    100  O          4.5450   13.4230   17.7180 O.2    70  TRP70      -0.2715
    101  CB         7.4000   13.8200   17.6490 C.3    70  TRP70       0.0590
    102  CG         8.7980   14.3200   17.7960 C.ar   70  TRP70       0.0006
    103  CD1        9.5330   14.3990   18.9480 C.ar   70  TRP70       0.0946
    104  CD2        9.6560   14.7660   16.7400 C.ar   70  TRP70       0.0152
    105  NE1       10.7980   14.8660   18.6710 N.ar   70  TRP70      -0.2442
    106  CE2       10.9000   15.0970   17.3230 C.ar   70  TRP70       0.0810
    107  CE3        9.4960   14.9150   15.3540 C.ar   70  TRP70       0.0012
    108  CZ2       11.9780   15.5680   16.5690 C.ar   70  TRP70       0.0191
    109  CZ3       10.5730   15.3840   14.6030 C.ar   70  TRP70       0.0001
    110  CH2       11.7960   15.7030   15.2150 C.ar   70  TRP70       0.0015
    111  N          4.5030   15.1560   19.1450 N.am   71  TRP71      -0.1960
    112  CA         3.1040   15.4500   18.9070 C.3    71  TRP71       0.1771
    113  C          2.2700   14.1810   19.0470 C.2    71  TRP71       0.2619
    114  O          1.6210   13.7210   18.1100 O.2    71  TRP71      -0.2715
    115  CB         2.9200   16.1300   17.5390 C.3    71  TRP71       0.0590
    116  CG         3.4270   17.5490   17.5990 C.ar   71  TRP71       0.0006
    117  CD1        4.5480   18.0460   17.0080 C.ar   71  TRP71       0.0946
    118  CD2        2.9180   18.5990   18.4390 C.ar   71  TRP71       0.0152
    119  NE1        4.7800   19.3340   17.4350 N.ar   71  TRP71      -0.2442
    120  CE2        3.7930   19.6970   18.3130 C.ar   71  TRP71       0.0810
    121  CE3        1.8090   18.7110   19.2910 C.ar   71  TRP71       0.0012
    122  CZ2        3.5970   20.9010   19.0110 C.ar   71  TRP71       0.0191
    123  CZ3        1.6130   19.9090   19.9880 C.ar   71  TRP71       0.0001
    124  CH2        2.5040   20.9860   19.8420 C.ar   71  TRP71       0.0015
    125  N          2.3310   13.6270   20.2580 N.am   72  MET72      -0.1977
    126  CA         1.6020   12.4290   20.6600 C.3    72  MET72       0.1605
    127  C          1.9680   11.1250   19.9670 C.2    72  MET72       0.2287
    128  O          1.2600   10.1350   20.1250 O.2    72  MET72      -0.2864
    129  CB         0.1030   12.6670   20.5060 C.3    72  MET72       0.0413
    130  CG        -0.3650   13.9930   21.0740 C.3    72  MET72       0.0598
    131  SD         0.1760   14.2800   22.7810 S.3    72  MET72      -0.1393
    132  CE         0.3750   16.0600   22.7630 C.3    72  MET72       0.0692
    133  N         10.3700    7.9600   24.8350 N.3   124  THR124     -0.1203
    134  CA        10.8570    9.0500   25.6650 C.3   124  THR124      0.1994
    135  C          9.8560   10.1850   25.4780 C.2   124  THR124      0.2618
    136  O          9.5910   10.6170   24.3500 O.2   124  THR124     -0.2717
    137  CB        12.2710    9.5250   25.2430 C.3   124  THR124      0.1784
    138  OG1       12.2270   10.0850   23.9250 O.3   124  THR124     -0.2211
    139  CG2       13.2480    8.3560   25.2510 C.3   124  THR124      0.0376
    140  N          9.2840   10.6450   26.5850 N.am  125  TRP125     -0.1961
    141  CA         8.2950   11.7170   26.5700 C.3   125  TRP125      0.1771
    142  C          8.5400   12.7360   27.6800 C.2   125  TRP125      0.2620
    143  O          9.0530   12.4010   28.7500 O.2   125  TRP125     -0.2715
    144  CB         6.8860   11.1440   26.7700 C.3   125  TRP125      0.0590
    145  CG         6.2370   10.5550   25.5550 C.ar  125  TRP125      0.0006
    146  CD1        6.7380    9.5780   24.7450 C.ar  125  TRP125      0.0946
    147  CD2        4.9230   10.8540   25.0560 C.ar  125  TRP125      0.0152
    148  NE1        5.8190    9.2460   23.7770 N.ar  125  TRP125     -0.2442
    149  CE2        4.6970   10.0140   23.9440 C.ar  125  TRP125      0.0810
    150  CE3        3.9160   11.7490   25.4440 C.ar  125  TRP125      0.0012
    151  CZ2        3.5010   10.0400   23.2110 C.ar  125  TRP125      0.0191
    152  CZ3        2.7260   11.7730   24.7150 C.ar  125  TRP125      0.0001
    153  CH2        2.5320   10.9210   23.6110 C.ar  125  TRP125      0.0015
    154  N          8.1590   13.9800   27.4160 N.am  126  ASN126     -0.1958
    155  CA         8.2790   15.0430   28.3990 C.3   126  ASN126      0.1819
    156  C          7.0740   14.9310   29.3360 C.2   126  ASN126      0.2621
    157  O          7.1110   15.3960   30.4790 O.2   126  ASN126     -0.2715
    158  CB         8.3050   16.4130   27.7010 C.3   126  ASN126      0.1195
    159  CG         7.4090   17.4470   28.3800 C.2   126  ASN126      0.2630
    160  OD1        6.2210   17.5610   28.0630 O.2   126  ASN126     -0.2716
    161  ND2        7.9720   18.2000   29.3180 N.am  126  ASN126     -0.0877
    162  N          6.0170   14.2850   28.8490 N.am  127  ALA127     -0.1977
    163  CA         4.7930   14.1080   29.6250 C.3   127  ALA127      0.1597
    164  C          4.9590   13.1250   30.7760 C.2   127  ALA127      0.2287
    165  O          5.6860   12.1320   30.6640 O.2   127  ALA127     -0.2864
    166  CB         3.6690   13.6390   28.7250 C.3   127  ALA127      0.0319
    167  N         11.3150   13.6620   30.6220 N.3   171  VAL171     -0.1231
    168  CA        12.7180   13.7050   30.2180 C.3   171  VAL171      0.1692
    169  C         13.3040   15.1030   30.0180 C.2   171  VAL171      0.2591
    170  O         14.4960   15.2480   29.7320 O.2   171  VAL171     -0.2718
    171  CB        12.9400   12.8830   28.9300 C.3   171  VAL171      0.0266
    172  CG1       12.4820   11.4480   29.1620 C.3   171  VAL171      0.0020
    173  CG2       12.1850   13.5090   27.7610 C.3   171  VAL171      0.0020
    174  N         12.4820   16.1350   30.1670 N.am  172  ILE172     -0.1980
    175  CA        12.9880   17.4920   30.0080 C.3   172  ILE172      0.1595
    176  C         12.9790   18.2520   31.3340 C.2   172  ILE172      0.2287
    177  O         13.9660   18.9030   31.6800 O.2   172  ILE172     -0.2864
    178  CB        12.1830   18.2790   28.9560 C.3   172  ILE172      0.0276
    179  CG1       12.7730   19.6810   28.7870 C.3   172  ILE172      0.0022
    180  CG2       10.7410   18.3830   29.3720 C.3   172  ILE172      0.0022
    181  CD1       14.2350   19.6830   28.3600 C.3   172  ILE172      0.0001
    182  N         14.7920   15.3150   34.0050 N.3   175  PRO175     -0.2116
    183  CA        15.6100   14.2920   33.3530 C.3   175  PRO175      0.1372
    184  C         16.4550   13.5530   34.3770 C.2   175  PRO175      0.2244
    185  O         16.9790   14.1550   35.3130 O.2   175  PRO175     -0.2868
    186  CB        16.4530   15.0980   32.3700 C.3   175  PRO175      0.0268
    187  CG        16.6590   16.3850   33.1020 C.3   175  PRO175      0.0207
    188  CD        15.2760   16.6670   33.6700 C.3   175  PRO175      0.0892
    189  N         19.1600   10.5670   33.7920 N.3   177  VAL177     -0.1245
    190  CA        19.9730    9.6150   33.0550 C.3   177  VAL177      0.1561
    191  C         21.2890    9.7370   33.8230 C.2   177  VAL177      0.2260
    192  O         21.9110   10.7990   33.8010 O.2   177  VAL177     -0.2867
    193  CB        20.2100   10.0930   31.5990 C.3   177  VAL177      0.0252
    194  CG1       20.8110    8.9780   30.7650 C.3   177  VAL177      0.0019
    195  CG2       18.9130   10.5820   30.9940 C.3   177  VAL177      0.0019
    196  N         17.0650    6.0460   33.8620 N.3   180  TYR180     -0.1241
    197  CA        16.3540    5.6770   32.6370 C.3   180  TYR180      0.1605
    198  C         17.1270    4.4780   32.0870 C.2   180  TYR180      0.2264
    199  O         16.5600    3.4330   31.7810 O.2   180  TYR180     -0.2867
    200  CB        16.4140    6.8170   31.6080 C.3   180  TYR180      0.0534
    201  CG        15.5940    8.0580   31.9300 C.ar  180  TYR180     -0.0201
    202  CD1       15.9170    9.2910   31.3540 C.ar  180  TYR180     -0.0009
    203  CD2       14.4830    7.9980   32.7750 C.ar  180  TYR180     -0.0009
    204  CE1       15.1600   10.4360   31.6080 C.ar  180  TYR180      0.0417
    205  CE2       13.7120    9.1400   33.0370 C.ar  180  TYR180      0.0417
    206  CZ        14.0590   10.3540   32.4470 C.ar  180  TYR180      0.1957
    207  OH        13.3020   11.4810   32.6830 O.3   180  TYR180     -0.2866
@<TRIPOS>BOND
     1     9     8    1
     2     8     7    1
     3     7     6    1
     4    19    17   ar
     5    19    20   ar
     6    17    15   ar
     7     6     5    1
     8    20    18   ar
     9   109   110   ar
    10   109   107   ar
    11    15    14    1
    12    15    16   ar
    13     5     2    1
    14    18    16   ar
    15    14    11    1
    16   110   108   ar
    17   107   104   ar
    18     2     3    1
    19     2     1    1
    20    11    10    1
    21    11    12    1
    22     3     4    2
    23   108   106   ar
    24   104   106   ar
    25   104   102   ar
    26   117   119   ar
    27   117   116   ar
    28    21    12   am
    29    21    22    1
    30    12    13    2
    31   106   105   ar
    32   119   120   ar
    33    25    22    1
    34   115   116    1
    35   115   112    1
    36   116   118   ar
    37   101   102    1
    38   101    98    1
    39   100    99    2
    40   102   103   ar
    41   114   113    2
    42    22    23    1
    43   120   118   ar
    44   120   122   ar
    45   118   121   ar
    46    99    98    1
    47    99   111   am
    48   105   103   ar
    49   112   113    1
    50   112   111    1
    51    98    97    1
    52   122   124   ar
    53    39    38    2
    54   113   125   am
    55   121   123   ar
    56    45    44    2
    57    92    91    1
    58    92    86    1
    59    23    24    2
    60    23    26   am
    61    91    90    1
    62    97    95   am
    63    89    88    2
    64   124   123   ar
    65    40    41    1
    66    40    37    1
    67   127   128    2
    68   127   126    1
    69    44    50   am
    70    44    43    1
    71    51    50    1
    72    51    52    1
    73    38    37    1
    74    38    42   am
    75   125   126    1
    76    43    42    1
    77    43    46    1
    78    26    27    1
    79    86    87    1
    80    53    52    2
    81   129   126    1
    82   129   130    1
    83    37    36    1
    84    36    28   am
    85    52    54   am
    86    95    96    2
    87    95    94    1
    88    88    87    1
    89    88    93   am
    90    48    47    2
    91    75    76    1
    92    75    72    1
    93    90    87    1
    94   130   131    1
    95    49    47   am
    96    47    46    1
    97    78    76   am
    98    74    73    2
    99    94    93    1
   100    76    77    2
   101    73    72    1
   102    27    28    1
   103    27    30    1
   104    54    55    1
   105    28    29    2
   106    72    71    1
   107    30    31    1
   108    55    56    1
   109    55    58    1
   110    33    31   ar
   111    33    35   ar
   112    31    32   ar
   113   132   131    1
   114    71    65   am
   115    79    80    1
   116    35    34   ar
   117   151   153   ar
   118   151   149   ar
   119    32    34   ar
   120    56    57    2
   121    56    63   am
   122    58    59    1
   123   153   152   ar
   124   148   149   ar
   125   148   146   ar
   126    59    60    1
   127   138   137    1
   128   149   147   ar
   129    63    64    1
   130    65    66    2
   131    65    64    1
   132   136   135    2
   133    80    81    1
   134    80    83    1
   135    81    82    2
   136   152   150   ar
   137   146   145   ar
   138   133   134    1
   139    64    67    1
   140   147   150   ar
   141   147   145   ar
   142    60    61    2
   143    60    62   am
   144   137   139    1
   145   137   134    1
   146    84    83    1
   147   135   134    1
   148   135   140   am
   149   145   144    1
   150    83    85    1
   151    67    68    1
   152   141   140    1
   153   141   144    1
   154   141   142    1
   155    68    70    1
   156    68    69    1
   157   154   142   am
   158   154   155    1
   159   142   143    2
   160   158   159    1
   161   158   155    1
   162   173   171    1
   163   160   159    2
   164   181   179    1
   165   159   161   am
   166   155   156    1
   167   166   163    1
   168   179   178    1
   169   162   156   am
   170   162   163    1
   171   171   172    1
   172   171   168    1
   173   178   180    1
   174   178   175    1
   175   156   157    2
   176   163   164    1
   177   170   169    2
   178   175   174    1
   179   175   176    1
   180   169   174   am
   181   169   168    1
   182   168   167    1
   183   165   164    2
   184   194   193    1
   185   195   193    1
   186   176   177    2
   187   202   204   ar
   188   202   201   ar
   189   193   190    1
   190   204   206   ar
   191   200   201    1
   192   200   197    1
   193   199   198    2
   194   201   203   ar
   195   198   197    1
   196   186   187    1
   197   186   183    1
   198   206   207    1
   199   206   205   ar
   200   197   196    1
   201   203   205   ar
   202   190   189    1
   203   190   191    1
   204   187   188    1
   205   183   182    1
   206   183   184    1
   207   188   182    1
   208   192   191    2
   209   184   185    2
