@<TRIPOS>MOLECULE
tmp/2b3tA00.pdb
 173 167 0 0 0
SMALL
GASTEIGER

@<TRIPOS>ATOM
      1  N         32.2530   16.6180   61.6870 N.3    88  THR88      -0.1203
      2  CA        32.5730   17.5980   62.6940 C.3    88  THR88       0.1994
      3  C         33.7780   18.3850   62.2070 C.2    88  THR88       0.2617
      4  O         34.0420   18.4360   61.0070 O.2    88  THR88      -0.2717
      5  CB        32.8720   16.9170   64.0500 C.3    88  THR88       0.1784
      6  OG1       32.9680   17.9100   65.0810 O.3    88  THR88      -0.2211
      7  CG2       34.1690   16.1290   63.9790 C.3    88  THR88       0.0376
      8  N         34.5070   18.9930   63.1330 N.am   89  LEU89      -0.1979
      9  CA        35.6630   19.8080   62.7960 C.3    89  LEU89       0.1596
     10  C         36.9690   19.0250   62.7470 C.2    89  LEU89       0.2287
     11  O         37.1130   17.9860   63.3920 O.2    89  LEU89      -0.2864
     12  CB        35.7940   20.9360   63.8230 C.3    89  LEU89       0.0297
     13  CG        36.8600   21.9990   63.5450 C.3    89  LEU89       0.0022
     14  CD1       36.2060   23.1760   62.8320 C.3    89  LEU89       0.0001
     15  CD2       37.5170   22.4500   64.8470 C.3    89  LEU89       0.0001
     16  N         40.3130   18.8260   64.0910 N.3    91  PRO91      -0.2116
     17  CA        41.0830   19.3420   65.2350 C.3    91  PRO91       0.1372
     18  C         42.2470   20.2280   64.8420 C.2    91  PRO91       0.2244
     19  O         43.1680   19.7840   64.1580 O.2    91  PRO91      -0.2868
     20  CB        41.4990   18.0730   65.9840 C.3    91  PRO91       0.0268
     21  CG        41.4390   17.0160   64.9440 C.3    91  PRO91       0.0207
     22  CD        40.2120   17.3600   64.1660 C.3    91  PRO91       0.0892
     23  N         43.8080   24.7270   69.1420 N.3    95  THR95      -0.1218
     24  CA        42.9590   24.0710   70.1220 C.3    95  THR95       0.1862
     25  C         43.8320   23.2760   71.1120 C.2    95  THR95       0.2287
     26  O         43.4190   23.0180   72.2430 O.2    95  THR95      -0.2866
     27  CB        41.9950   23.1370   69.4210 C.3    95  THR95       0.1770
     28  OG1       41.6090   23.7270   68.1800 O.3    95  THR95      -0.2211
     29  CG2       40.7650   22.9250   70.2530 C.3    95  THR95       0.0375
     30  N         30.8190   19.6680   73.2640 N.3   117  GLY117     -0.1210
     31  CA        31.1020   19.6570   71.8360 C.3   117  GLY117      0.1956
     32  C         32.4640   19.0460   71.5440 C.2   117  GLY117      0.2613
     33  O         33.2880   19.6210   70.8260 O.2   117  GLY117     -0.2717
     34  N         32.6970   17.8600   72.0950 N.am  118  THR118     -0.1938
     35  CA        33.9760   17.1860   71.9400 C.3   118  THR118      0.2028
     36  C         34.3940   16.9940   70.4950 C.2   118  THR118      0.2643
     37  O         35.5770   17.0940   70.1800 O.2   118  THR118     -0.2714
     38  CB        33.9660   15.8340   72.6690 C.3   118  THR118      0.1808
     39  OG1       35.2650   15.2390   72.6040 O.3   118  THR118     -0.2208
     40  CG2       32.9540   14.9120   72.0480 C.3   118  THR118      0.0379
     41  N         33.4240   16.7340   69.6240 N.am  119  GLY119     -0.1939
     42  CA        33.7150   16.5380   68.2090 C.3   119  GLY119      0.2014
     43  C         34.4110   15.2240   67.8790 C.2   119  GLY119      0.2639
     44  O         33.8730   14.1440   68.1170 O.2   119  GLY119     -0.2714
     45  N         35.6020   15.3110   67.3010 N.am  120  THR120     -0.1950
     46  CA        36.3610   14.1150   66.9770 C.3   120  THR120      0.1897
     47  C         36.7000   13.4330   68.3050 C.2   120  THR120      0.2313
     48  O         36.8140   12.2080   68.3790 O.2   120  THR120     -0.2863
     49  CB        37.6710   14.4740   66.2310 C.3   120  THR120      0.1794
     50  OG1       38.5260   15.2460   67.0820 O.3   120  THR120     -0.2208
     51  CG2       37.3650   15.3080   65.0080 C.3   120  THR120      0.0378
     52  N         39.0430   15.2140   70.1780 N.3   122  ALA122     -0.1231
     53  CA        40.3510   15.8470   70.3690 C.3   122  ALA122      0.1694
     54  C         40.7120   16.1630   71.8190 C.2   122  ALA122      0.2591
     55  O         41.3990   15.3800   72.4640 O.2   122  ALA122     -0.2718
     56  CB        40.4270   17.1000   69.5470 C.3   122  ALA122      0.0304
     57  N         40.2540   17.3080   72.3240 N.am  123  ILE123     -0.1980
     58  CA        40.5300   17.7250   73.7040 C.3   123  ILE123      0.1595
     59  C         40.3360   16.6120   74.7440 C.2   123  ILE123      0.2287
     60  O         41.2750   16.2690   75.4790 O.2   123  ILE123     -0.2864
     61  CB        39.6390   18.9420   74.1470 C.3   123  ILE123      0.0276
     62  CG1       40.1550   20.2510   73.5470 C.3   123  ILE123      0.0022
     63  CG2       39.6560   19.0860   75.6660 C.3   123  ILE123      0.0022
     64  CD1       40.0010   20.3600   72.0610 C.3   123  ILE123      0.0001
     65  N         30.5450   15.0960   75.3890 N.3   139  VAL139     -0.1231
     66  CA        29.2090   14.9970   74.8310 C.3   139  VAL139      0.1692
     67  C         29.1840   15.7620   73.5200 C.2   139  VAL139      0.2592
     68  O         30.0270   16.6260   73.2740 O.2   139  VAL139     -0.2718
     69  CB        28.1380   15.5910   75.7890 C.3   139  VAL139      0.0266
     70  CG1       28.3040   15.0110   77.1700 C.3   139  VAL139      0.0020
     71  CG2       28.2420   17.1010   75.8300 C.3   139  VAL139      0.0020
     72  N         28.2310   15.4330   72.6640 N.am  140  ASP140     -0.1960
     73  CA        28.1240   16.1430   71.4150 C.3   140  ASP140      0.1840
     74  C         26.6750   16.1010   70.9630 C.2   140  ASP140      0.2622
     75  O         25.9330   15.1970   71.3160 O.2   140  ASP140     -0.2715
     76  CB        29.0690   15.5340   70.3820 C.3   140  ASP140      0.1450
     77  CG        29.5250   16.5480   69.3310 C.2   140  ASP140      0.3671
     78  OD1       30.7510   16.6800   69.1020 O.co2 140  ASP140     -0.2456
     79  OD2       28.6490   17.2040   68.7290 O.co2 140  ASP140     -0.2456
     80  N         26.2790   17.1130   70.2070 N.am  141  ARG141     -0.1963
     81  CA        24.9260   17.2470   69.7060 C.3   141  ARG141      0.1729
     82  C         24.6810   16.3810   68.4860 C.2   141  ARG141      0.2616
     83  O         23.6770   15.6700   68.4270 O.2   141  ARG141     -0.2715
     84  CB        24.6710   18.7080   69.3730 C.3   141  ARG141      0.0348
     85  CG        23.5560   19.0110   68.3960 C.3   141  ARG141      0.0492
     86  CD        23.6070   20.4900   68.0670 C.3   141  ARG141      0.2205
     87  NE        22.8530   20.8310   66.8720 N.pl3 141  ARG141     -0.0865
     88  CZ        23.1910   21.8250   66.0550 C.cat 141  ARG141      0.5346
     89  NH1       24.2700   22.5610   66.3110 N.pl3 141  ARG141      0.1354
     90  NH2       22.4570   22.0830   64.9780 N.pl3 141  ARG141      0.1354
     91  N         25.5750   16.4420   67.5010 N.am  142  MET142     -0.1977
     92  CA        25.3910   15.6140   66.3190 C.3   142  MET142      0.1605
     93  C         25.7260   14.1770   66.7220 C.2   142  MET142      0.2287
     94  O         26.7720   13.9140   67.3190 O.2   142  MET142     -0.2864
     95  CB        26.2830   16.1000   65.1840 C.3   142  MET142      0.0413
     96  CG        25.9830   17.5340   64.7430 C.3   142  MET142      0.0598
     97  SD        24.2150   17.9150   64.5430 S.3   142  MET142     -0.1393
     98  CE        23.7950   16.9720   63.0640 C.3   142  MET142      0.0692
     99  N         29.0240   12.7170   65.3880 N.3   145  ALA145     -0.1245
    100  CA        30.2110   13.2140   66.0730 C.3   145  ALA145      0.1562
    101  C         30.4330   12.2940   67.2510 C.2   145  ALA145      0.2260
    102  O         31.5630   11.9250   67.5650 O.2   145  ALA145     -0.2867
    103  CB        30.0040   14.6510   66.5500 C.3   145  ALA145      0.0290
    104  N         24.4660   14.9090   74.2430 N.3   166  SER166     -0.1202
    105  CA        23.5340   15.8900   74.7870 C.3   166  SER166      0.2020
    106  C         23.6040   17.1970   74.0270 C.2   166  SER166      0.2619
    107  O         24.4530   17.3870   73.1690 O.2   166  SER166     -0.2717
    108  CB        23.8460   16.1770   76.2590 C.3   166  SER166      0.2103
    109  OG        25.0180   16.9660   76.4070 O.3   166  SER166     -0.2182
    110  N         22.6810   18.0930   74.3270 N.am  167  ASP167     -0.1959
    111  CA        22.7140   19.3990   73.7170 C.3   167  ASP167      0.1840
    112  C         23.2070   20.2360   74.8690 C.2   167  ASP167      0.2622
    113  O         22.4390   20.6520   75.7330 O.2   167  ASP167     -0.2715
    114  CB        21.3350   19.8650   73.2800 C.3   167  ASP167      0.1450
    115  CG        21.3290   21.3270   72.8690 C.2   167  ASP167      0.3671
    116  OD1       20.4920   21.7130   72.0250 O.co2 167  ASP167     -0.2456
    117  OD2       22.1610   22.0960   73.4030 O.co2 167  ASP167     -0.2456
    118  N         24.5150   20.4440   74.8770 N.am  168  TRP168     -0.1974
    119  CA        25.1850   21.1850   75.9250 C.3   168  TRP168      0.1640
    120  C         25.1200   20.4690   77.2770 C.2   168  TRP168      0.2290
    121  O         26.1060   19.8560   77.6820 O.2   168  TRP168     -0.2864
    122  CB        24.6390   22.6030   75.9800 C.3   168  TRP168      0.0576
    123  CG        25.1560   23.4130   74.8400 C.ar  168  TRP168      0.0006
    124  CD1       24.5290   24.4540   74.2290 C.ar  168  TRP168      0.0946
    125  CD2       26.4030   23.2360   74.1500 C.ar  168  TRP168      0.0152
    126  NE1       25.2990   24.9400   73.1980 N.ar  168  TRP168     -0.2442
    127  CE2       26.4540   24.2070   73.1240 C.ar  168  TRP168      0.0810
    128  CE3       27.4810   22.3510   74.2950 C.ar  168  TRP168      0.0012
    129  CZ2       27.5390   24.3150   72.2440 C.ar  168  TRP168      0.0191
    130  CZ3       28.5600   22.4610   73.4210 C.ar  168  TRP168      0.0001
    131  CH2       28.5770   23.4350   72.4080 C.ar  168  TRP168      0.0015
    132  N         35.4030   23.9690   73.1780 N.3   183  ASN183     -0.1226
    133  CA        35.6950   24.7520   71.9790 C.3   183  ASN183      0.1770
    134  C         34.3860   24.6800   71.2040 C.2   183  ASN183      0.2439
    135  O         34.1860   23.7840   70.3910 O.2   183  ASN183     -0.2733
    136  CB        36.8030   24.0970   71.1540 C.3   183  ASN183      0.1168
    137  CG        36.8990   24.6590   69.7440 C.2   183  ASN183      0.2627
    138  OD1       35.8990   25.0100   69.1320 O.2   183  ASN183     -0.2716
    139  ND2       38.1090   24.7220   69.2160 N.am  183  ASN183     -0.0877
    140  N         33.4640   25.6130   71.4560 N.am  184  PRO184     -0.2718
    141  CA        32.2000   25.5510   70.7250 C.3   184  PRO184      0.1520
    142  C         32.2890   26.3130   69.4240 C.2   184  PRO184      0.2440
    143  O         33.3210   26.8950   69.1000 O.2   184  PRO184     -0.2731
    144  CB        31.2090   26.2110   71.6820 C.3   184  PRO184      0.0310
    145  CG        31.9820   26.3630   73.0010 C.3   184  PRO184      0.0237
    146  CD        33.3780   26.5850   72.5510 C.3   184  PRO184      0.0939
    147  N         31.2070   26.3050   68.6470 N.am  185  PRO185     -0.2727
    148  CA        31.2620   27.0470   67.3910 C.3   185  PRO185      0.1402
    149  C         31.3630   28.5400   67.7570 C.2   185  PRO185      0.2269
    150  O         30.6530   29.0100   68.6520 O.2   185  PRO185     -0.2865
    151  CB        29.9270   26.7010   66.7340 C.3   185  PRO185      0.0296
    152  CG        29.6100   25.3530   67.2910 C.3   185  PRO185      0.0237
    153  CD        29.9770   25.5040   68.7350 C.3   185  PRO185      0.0939
    154  N         27.3770   23.1800   61.6000 N.3   205  THR205     -0.1203
    155  CA        26.9320   22.6350   62.8790 C.3   205  THR205      0.1994
    156  C         28.0500   22.8510   63.8950 C.2   205  THR205      0.2617
    157  O         27.8110   23.0090   65.0880 O.2   205  THR205     -0.2717
    158  CB        26.6540   21.1140   62.7570 C.3   205  THR205      0.1784
    159  OG1       26.4840   20.7710   61.3770 O.3   205  THR205     -0.2211
    160  CG2       25.4040   20.7390   63.5050 C.3   205  THR205      0.0376
    161  N         29.2720   22.8780   63.3890 N.am  206  ALA206     -0.1979
    162  CA        30.4370   23.0340   64.2240 C.3   206  ALA206      0.1597
    163  C         31.1750   24.3360   63.9580 C.2   206  ALA206      0.2287
    164  O         32.1120   24.6850   64.6780 O.2   206  ALA206     -0.2864
    165  CB        31.3720   21.8550   64.0010 C.3   206  ALA206      0.0319
    166  N         26.7490   30.6250   71.2590 N.3   216  ASP216     -0.1239
    167  CA        27.0710   29.4490   72.0650 C.3   216  ASP216      0.1674
    168  C         28.0350   29.6840   73.2230 C.2   216  ASP216      0.2266
    169  O         27.7860   29.2290   74.3370 O.2   216  ASP216     -0.2867
    170  CB        27.6060   28.3170   71.1720 C.3   216  ASP216      0.1410
    171  CG        26.5270   27.7050   70.2850 C.2   216  ASP216      0.3668
    172  OD1       25.3470   27.6890   70.7000 O.co2 216  ASP216     -0.2456
    173  OD2       26.8610   27.2260   69.1790 O.co2 216  ASP216     -0.2456
@<TRIPOS>BOND
     1     4     3    2
     2   159   158    1
     3   154   155    1
     4     1     2    1
     5     3     2    1
     6     3     8   am
     7     2     5    1
     8    10     9    1
     9    10    11    2
    10   158   155    1
    11   158   160    1
    12     9     8    1
    13     9    12    1
    14    14    13    1
    15   155   156    1
    16    98    97    1
    17   161   156   am
    18   161   162    1
    19    13    12    1
    20    13    15    1
    21   156   157    2
    22   163   162    1
    23   163   164    2
    24     7     5    1
    25   165   162    1
    26     5     6    1
    27    16    22    1
    28    16    17    1
    29    19    18    2
    30    22    21    1
    31    97    96    1
    32    96    95    1
    33    18    17    1
    34    21    20    1
    35    90    88    1
    36    51    49    1
    37    95    92    1
    38    17    20    1
    39    99   100    1
    40    88    89    1
    41    88    87    2
    42   100   103    1
    43   100   101    1
    44    49    46    1
    45    49    50    1
    46    92    93    1
    47    92    91    1
    48    93    94    2
    49   151   152    1
    50   151   148    1
    51    87    86    1
    52    46    45    1
    53    46    47    1
    54   101   102    2
    55   152   153    1
    56    45    43   am
    57   148   149    1
    58   148   147    1
    59    91    82   am
    60   149   150    2
    61    43    44    2
    62    43    42    1
    63    86    85    1
    64    28    27    1
    65    42    41    1
    66    47    48    2
    67    85    84    1
    68    83    82    2
    69    82    81    1
    70   147   153    1
    71   147   142   am
    72    79    77   ar
    73   143   142    2
    74    78    77   ar
    75   138   137    2
    76    23    24    1
    77   173   171   ar
    78   139   137   am
    79    77    76    1
    80    84    81    1
    81    27    24    1
    82    27    29    1
    83   142   141    1
    84    56    53    1
    85    41    36   am
    86    81    80    1
    87   137   136    1
    88    24    25    1
    89    52    53    1
    90    37    36    2
    91    80    74   am
    92   171   172   ar
    93   171   170    1
    94    53    54    1
    95    76    73    1
    96   135   134    2
    97    36    35    1
    98   141   140    1
    99   141   144    1
   100    33    32    2
   101    74    75    2
   102    74    73    1
   103    25    26    2
   104   136   133    1
   105   170   167    1
   106   134   140   am
   107   134   133    1
   108   166   167    1
   109    73    72    1
   110   140   146    1
   111    32    31    1
   112    32    34   am
   113   144   145    1
   114    54    57   am
   115    54    55    2
   116    31    30    1
   117    35    34    1
   118    35    38    1
   119   133   132    1
   120   116   115   ar
   121    40    38    1
   122    64    62    1
   123   167   168    1
   124   129   131   ar
   125   129   127   ar
   126    57    58    1
   127   131   130   ar
   128   146   145    1
   129    39    38    1
   130    72    67   am
   131   115   114    1
   132   115   117   ar
   133   127   126   ar
   134   127   125   ar
   135   107   106    2
   136   126   124   ar
   137   168   169    2
   138    68    67    2
   139   114   111    1
   140   130   128   ar
   141    67    66    1
   142    62    61    1
   143    58    61    1
   144    58    59    1
   145   111   110    1
   146   111   112    1
   147   106   110   am
   148   106   105    1
   149    61    63    1
   150   125   128   ar
   151   125   123   ar
   152   124   123   ar
   153   104   105    1
   154    59    60    2
   155   105   108    1
   156    66    65    1
   157    66    69    1
   158   123   122    1
   159   112   118   am
   160   112   113    2
   161   118   119    1
   162    69    71    1
   163    69    70    1
   164   119   122    1
   165   119   120    1
   166   108   109    1
   167   120   121    2
