@<TRIPOS>MOLECULE
tmp/2b45A00.pdb
 150 149 0 0 0
SMALL
GASTEIGER

@<TRIPOS>ATOM
      1  N        -20.3500   36.8840   -0.5190 N.3     5  TYR5       -0.1241
      2  CA       -19.0630   37.1770   -1.1260 C.3     5  TYR5        0.1605
      3  C        -18.8370   36.3280   -2.3690 C.2     5  TYR5        0.2264
      4  O        -19.1120   35.1200   -2.3710 O.2     5  TYR5       -0.2867
      5  CB       -17.9190   36.8910   -0.1510 C.3     5  TYR5        0.0534
      6  CG       -16.5470   37.2690   -0.6870 C.ar    5  TYR5       -0.0201
      7  CD1      -16.1640   38.5980   -0.8040 C.ar    5  TYR5       -0.0009
      8  CD2      -15.6340   36.2950   -1.0680 C.ar    5  TYR5       -0.0009
      9  CE1      -14.9080   38.9400   -1.2700 C.ar    5  TYR5        0.0417
     10  CE2      -14.3900   36.6230   -1.5430 C.ar    5  TYR5        0.0417
     11  CZ       -14.0300   37.9360   -1.6540 C.ar    5  TYR5        0.1957
     12  OH       -12.7880   38.2600   -2.1040 O.3     5  TYR5       -0.2866
     13  N        -15.8800   35.3640   -5.2590 N.3     7  GLN7       -0.1245
     14  CA       -14.4540   35.2770   -5.4880 C.3     7  GLN7        0.1566
     15  C        -14.2420   34.8690   -6.9310 C.2     7  GLN7        0.2260
     16  O        -14.8010   33.8850   -7.3950 O.2     7  GLN7       -0.2867
     17  CB       -13.8430   34.2240   -4.5540 C.3     7  GLN7        0.0367
     18  CG       -12.3260   33.9840   -4.7230 C.3     7  GLN7        0.0905
     19  CD       -11.4520   35.1350   -4.2000 C.2     7  GLN7        0.2608
     20  OE1      -11.9250   36.0260   -3.4550 O.2     7  GLN7       -0.2717
     21  NE2      -10.1790   35.1290   -4.6030 N.am    7  GLN7       -0.0878
     22  N        -10.7220   35.1970   -9.0190 N.3     9  TRP9       -0.1241
     23  CA        -9.3500   35.6420   -9.1600 C.3     9  TRP9        0.1605
     24  C         -8.6620   34.7280  -10.1480 C.2     9  TRP9        0.2264
     25  O         -8.7590   33.5140  -10.0280 O.2     9  TRP9       -0.2867
     26  CB        -8.6310   35.5750   -7.8150 C.3     9  TRP9        0.0550
     27  CG        -7.2140   35.9710   -7.9440 C.ar    9  TRP9        0.0003
     28  CD1       -6.7070   37.2400   -7.8900 C.ar    9  TRP9        0.0946
     29  CD2       -6.1040   35.1040   -8.1730 C.ar    9  TRP9        0.0152
     30  NE1       -5.3400   37.2060   -8.0470 N.ar    9  TRP9       -0.2442
     31  CE2       -4.9460   35.9080   -8.2350 C.ar    9  TRP9        0.0810
     32  CE3       -5.9660   33.7190   -8.3250 C.ar    9  TRP9        0.0012
     33  CZ2       -3.6670   35.3710   -8.4450 C.ar    9  TRP9        0.0191
     34  CZ3       -4.7030   33.1830   -8.5170 C.ar    9  TRP9        0.0001
     35  CH2       -3.5670   34.0110   -8.5790 C.ar    9  TRP9        0.0015
     36  N         -3.2720   30.0520  -12.8190 N.3    35  ASN35      -0.1225
     37  CA        -3.8900   29.7640  -11.5300 C.3    35  ASN35       0.1785
     38  C         -5.1470   30.5840  -11.3840 C.2    35  ASN35       0.2597
     39  O         -5.1930   31.7310  -11.8060 O.2    35  ASN35      -0.2718
     40  CB        -2.9830   30.1390  -10.3640 C.3    35  ASN35       0.1169
     41  CG        -1.6480   29.4520  -10.3980 C.2    35  ASN35       0.2627
     42  OD1       -1.4870   28.3380   -9.8600 O.2    35  ASN35      -0.2716
     43  ND2       -0.6470   30.1220  -10.9900 N.am   35  ASN35      -0.0877
     44  N         -6.1650   29.9970  -10.7620 N.am   36  PHE36      -0.1962
     45  CA        -7.3910   30.7170  -10.4440 C.3    36  PHE36       0.1771
     46  C         -8.0970   30.1010   -9.2310 C.2    36  PHE36       0.2619
     47  O         -7.9450   28.9080   -8.9320 O.2    36  PHE36      -0.2715
     48  CB        -8.3400   30.7340  -11.6450 C.3    36  PHE36       0.0574
     49  CG        -9.0390   29.4260  -11.8850 C.ar   36  PHE36      -0.0200
     50  CD1      -10.2350   29.1280  -11.2400 C.ar   36  PHE36      -0.0042
     51  CD2       -8.5050   28.4860  -12.7750 C.ar   36  PHE36      -0.0042
     52  CE1      -10.8770   27.9170  -11.4780 C.ar   36  PHE36      -0.0003
     53  CE2       -9.1330   27.2890  -13.0080 C.ar   36  PHE36      -0.0003
     54  CZ       -10.3300   27.0030  -12.3600 C.ar   36  PHE36      -0.0000
     55  N         -8.8540   30.9480   -8.5400 N.am   37  VAL37      -0.1977
     56  CA        -9.7900   30.5160   -7.4980 C.3    37  VAL37       0.1596
     57  C        -11.0900   31.2860   -7.7290 C.2    37  VAL37       0.2287
     58  O        -11.0760   32.5210   -7.7920 O.2    37  VAL37      -0.2864
     59  CB        -9.2590   30.8240   -6.0770 C.3    37  VAL37       0.0276
     60  CG1      -10.2170   30.3000   -5.0160 C.3    37  VAL37       0.0022
     61  CG2       -7.9000   30.2080   -5.8640 C.3    37  VAL37       0.0022
     62  N        -11.7120   27.3210    1.0200 N.3    69  TYR69      -0.1241
     63  CA       -10.5530   28.1570    0.8190 C.3    69  TYR69       0.1605
     64  C        -10.7450   29.4300    1.6120 C.2    69  TYR69       0.2264
     65  O        -11.7840   30.0380    1.5450 O.2    69  TYR69      -0.2867
     66  CB       -10.3420   28.4600   -0.6830 C.3    69  TYR69       0.0534
     67  CG        -9.1170   29.2970   -0.9670 C.ar   69  TYR69      -0.0201
     68  CD1       -7.8360   28.7720   -0.8330 C.ar   69  TYR69      -0.0009
     69  CD2       -9.2360   30.6260   -1.3440 C.ar   69  TYR69      -0.0009
     70  CE1       -6.6970   29.5780   -1.0840 C.ar   69  TYR69       0.0417
     71  CE2       -8.1100   31.4240   -1.5930 C.ar   69  TYR69       0.0417
     72  CZ        -6.8700   30.9060   -1.4660 C.ar   69  TYR69       0.1957
     73  OH        -5.7990   31.7310   -1.7090 O.3    69  TYR69      -0.2866
     74  N         -8.6460   32.7480    4.3450 N.3    71  TRP71      -0.1241
     75  CA        -7.4690   33.3840    4.9420 C.3    71  TRP71       0.1605
     76  C         -7.7630   33.9310    6.3400 C.2    71  TRP71       0.2264
     77  O         -8.8850   34.3390    6.6470 O.2    71  TRP71      -0.2867
     78  CB        -7.0050   34.5710    4.1060 C.3    71  TRP71       0.0550
     79  CG        -6.4930   34.2390    2.7460 C.ar   71  TRP71       0.0003
     80  CD1       -7.2250   34.0310    1.6240 C.ar   71  TRP71       0.0946
     81  CD2       -5.1250   34.0920    2.3630 C.ar   71  TRP71       0.0152
     82  NE1       -6.4010   33.7560    0.5610 N.ar   71  TRP71      -0.2442
     83  CE2       -5.1040   33.7850    0.9880 C.ar   71  TRP71       0.0810
     84  CE3       -3.9120   34.2080    3.0400 C.ar   71  TRP71       0.0012
     85  CZ2       -3.9120   33.6090    0.2750 C.ar   71  TRP71       0.0191
     86  CZ3       -2.7330   34.0110    2.3470 C.ar   71  TRP71       0.0001
     87  CH2       -2.7420   33.7110    0.9740 C.ar   71  TRP71       0.0015
     88  N         -3.0360   30.9830    4.8870 N.3    78  GLU78      -0.1245
     89  CA        -3.9260   30.4720    3.8530 C.3    78  GLU78       0.1567
     90  C         -4.3770   29.0650    4.2500 C.2    78  GLU78       0.2260
     91  O         -3.5240   28.2230    4.5700 O.2    78  GLU78      -0.2867
     92  CB        -3.1610   30.4270    2.5260 C.3    78  GLU78       0.0388
     93  CG        -4.0110   30.1040    1.3040 C.3    78  GLU78       0.1160
     94  CD        -3.1510   30.0560    0.0430 C.2    78  GLU78       0.3649
     95  OE1       -2.0200   29.5240    0.0920 O.co2  78  GLU78      -0.2457
     96  OE2       -3.5850   30.6200   -0.9630 O.co2  78  GLU78      -0.2457
     97  N         -7.0660   25.4520    3.5510 N.3    80  TYR80      -0.1241
     98  CA        -7.7990   24.6120    2.6170 C.3    80  TYR80       0.1605
     99  C         -8.4390   23.4340    3.3450 C.2    80  TYR80       0.2264
    100  O         -7.8390   22.8550    4.2510 O.2    80  TYR80      -0.2867
    101  CB        -6.8300   23.9820    1.6250 C.3    80  TYR80       0.0534
    102  CG        -6.3020   24.8440    0.5050 C.ar   80  TYR80      -0.0201
    103  CD1       -5.1720   25.6380    0.6840 C.ar   80  TYR80      -0.0009
    104  CD2       -6.8960   24.8110   -0.7500 C.ar   80  TYR80      -0.0009
    105  CE1       -4.6550   26.4130   -0.3520 C.ar   80  TYR80       0.0417
    106  CE2       -6.4010   25.5850   -1.7940 C.ar   80  TYR80       0.0417
    107  CZ        -5.2760   26.3730   -1.5960 C.ar   80  TYR80       0.1957
    108  OH        -4.7740   27.1240   -2.6290 O.3    80  TYR80      -0.2866
    109  N          2.2690   34.9440   -3.8580 N.3   116  PRO116     -0.2102
    110  CA         1.0610   35.7730   -3.8480 C.3   116  PRO116      0.1504
    111  C          0.1030   35.3780   -2.7650 C.2   116  PRO116      0.2576
    112  O         -0.1100   34.1890   -2.4960 O.2   116  PRO116     -0.2718
    113  CB         0.4170   35.5420   -5.2290 C.3   116  PRO116      0.0282
    114  CG         1.3440   34.7790   -5.9960 C.3   116  PRO116      0.0208
    115  CD         2.3330   34.0980   -5.0580 C.3   116  PRO116      0.0893
    116  N         -0.4750   36.3970   -2.1520 N.am  117  SER117     -0.1938
    117  CA        -1.4460   36.2530   -1.0920 C.3   117  SER117      0.2055
    118  C         -2.4520   37.3920   -1.2020 C.2   117  SER117      0.2642
    119  O         -2.3490   38.2380   -2.0890 O.2   117  SER117     -0.2714
    120  CB        -0.7210   36.3340    0.2420 C.3   117  SER117      0.2130
    121  OG        -0.1820   37.6180    0.4420 O.3   117  SER117     -0.2179
    122  N         -3.3990   37.4360   -0.2770 N.am  118  ILE118     -0.1977
    123  CA        -4.3140   38.5860   -0.1590 C.3   118  ILE118      0.1596
    124  C         -3.5790   39.8850    0.2050 C.2   118  ILE118      0.2287
    125  O         -4.1430   40.9560    0.0840 O.2   118  ILE118     -0.2864
    126  CB        -5.4250   38.3130    0.8960 C.3   118  ILE118      0.0276
    127  CG1       -4.7910   37.9630    2.2580 C.3   118  ILE118      0.0022
    128  CG2       -6.3550   37.2280    0.3770 C.3   118  ILE118      0.0022
    129  CD1       -5.8000   37.8620    3.4370 C.3   118  ILE118      0.0001
    130  N        -11.7650   36.4610    3.9500 N.3   166  TYR166     -0.1241
    131  CA       -12.8390   35.6960    3.3270 C.3   166  TYR166      0.1605
    132  C        -12.7370   34.1900    3.4930 C.2   166  TYR166      0.2264
    133  O        -11.6970   33.6590    3.8440 O.2   166  TYR166     -0.2867
    134  CB       -13.0090   36.0780    1.8610 C.3   166  TYR166      0.0534
    135  CG       -11.8490   35.7560    0.9920 C.ar  166  TYR166     -0.0201
    136  CD1      -11.6060   34.4440    0.5850 C.ar  166  TYR166     -0.0009
    137  CD2      -10.9960   36.7690    0.5280 C.ar  166  TYR166     -0.0009
    138  CE1      -10.5520   34.1420   -0.2550 C.ar  166  TYR166      0.0417
    139  CE2       -9.9150   36.4670   -0.3230 C.ar  166  TYR166      0.0417
    140  CZ        -9.6990   35.1530   -0.7000 C.ar  166  TYR166      0.1957
    141  OH        -8.6380   34.8010   -1.5150 O.3   166  TYR166     -0.2866
    142  N        -10.5970   25.7010   -7.4350 N.3   172  GLU172     -0.1245
    143  CA        -9.2460   26.1560   -7.7850 C.3   172  GLU172      0.1567
    144  C         -8.7110   25.3420   -8.9460 C.2   172  GLU172      0.2260
    145  O         -8.8910   24.1360   -8.9980 O.2   172  GLU172     -0.2867
    146  CB        -8.2760   26.0090   -6.6090 C.3   172  GLU172      0.0388
    147  CG        -6.8450   26.4110   -6.9880 C.3   172  GLU172      0.1160
    148  CD        -5.9210   26.6530   -5.8030 C.2   172  GLU172      0.3649
    149  OE1       -6.3640   26.8090   -4.6400 O.co2 172  GLU172     -0.2457
    150  OE2       -4.7150   26.7120   -6.0550 O.co2 172  GLU172     -0.2457
@<TRIPOS>BOND
     1    53    51   ar
     2    53    54   ar
     3    36    37    1
     4    51    49   ar
     5    54    52   ar
     6    49    48    1
     7    49    50   ar
     8    39    38    2
     9    48    45    1
    10    37    38    1
    11    37    40    1
    12    52    50   ar
    13    38    44   am
    14    43    41   am
    15    44    45    1
    16    45    46    1
    17    41    40    1
    18    41    42    2
    19    24    25    2
    20    24    23    1
    21    46    47    2
    22    46    55   am
    23    23    22    1
    24    23    26    1
    25   145   144    2
    26   144   143    1
    27    35    34   ar
    28    35    33   ar
    29    55    56    1
    30    34    32   ar
    31    33    31   ar
    32    32    29   ar
    33    31    29   ar
    34    31    30   ar
    35    29    27   ar
    36    30    28   ar
    37    27    28   ar
    38    27    26    1
    39    58    57    2
    40   143   142    1
    41   143   146    1
    42    57    56    1
    43    56    59    1
    44    16    15    2
    45   147   146    1
    46   147   148    1
    47    15    14    1
    48    59    61    1
    49    59    60    1
    50   150   148   ar
    51   114   113    1
    52   114   115    1
    53   148   149   ar
    54    14    13    1
    55    14    17    1
    56   113   110    1
    57   115   109    1
    58    18    17    1
    59    18    19    1
    60    21    19   am
    61    19    20    2
    62   109   110    1
    63   110   111    1
    64   111   112    2
    65   111   116   am
    66   108   107    1
    67     4     3    2
    68     3     2    1
    69   116   117    1
    70    12    11    1
    71   119   118    2
    72   106   107   ar
    73   106   104   ar
    74    73    72    1
    75    11    10   ar
    76    11     9   ar
    77   107   105   ar
    78    71    72   ar
    79    71    69   ar
    80    10     8   ar
    81   141   140    1
    82    72    70   ar
    83    69    67   ar
    84     9     7   ar
    85   118   117    1
    86   118   122   am
    87     2     1    1
    88     2     5    1
    89   117   120    1
    90    70    68   ar
    91     8     6   ar
    92    67    68   ar
    93    67    66    1
    94    96    94   ar
    95     7     6   ar
    96   104   102   ar
    97   140   139   ar
    98   140   138   ar
    99     6     5    1
   100    66    63    1
   101   105   103   ar
   102   139   137   ar
   103   122   123    1
   104   138   136   ar
   105   123   124    1
   106   123   126    1
   107    94    95   ar
   108    94    93    1
   109   125   124    2
   110   120   121    1
   111    85    87   ar
   112    85    83   ar
   113   128   126    1
   114   102   103   ar
   115   102   101    1
   116   137   135   ar
   117    82    83   ar
   118    82    80   ar
   119   136   135   ar
   120    63    62    1
   121    63    64    1
   122   126   127    1
   123    87    86   ar
   124    83    81   ar
   125   135   134    1
   126    93    92    1
   127    65    64    2
   128    80    79   ar
   129   101    98    1
   130   134   131    1
   131   127   129    1
   132    86    84   ar
   133    81    79   ar
   134    81    84   ar
   135    92    89    1
   136    98    99    1
   137    98    97    1
   138    79    78    1
   139   131   132    1
   140   131   130    1
   141    99   100    2
   142   132   133    2
   143    89    90    1
   144    89    88    1
   145    78    75    1
   146    90    91    2
   147    74    75    1
   148    75    76    1
   149    76    77    2
