@<TRIPOS>MOLECULE
tmp/2b46A00.pdb
 170 164 0 0 0
SMALL
GASTEIGER

@<TRIPOS>ATOM
      1  N        -15.5050   35.3030   -4.9180 N.3     7  GLN7       -0.1245
      2  CA       -14.0850   35.1800   -5.1730 C.3     7  GLN7        0.1566
      3  C        -13.9150   34.8050   -6.6330 C.2     7  GLN7        0.2260
      4  O        -14.5800   33.9190   -7.1290 O.2     7  GLN7       -0.2867
      5  CB       -13.4790   34.1010   -4.2640 C.3     7  GLN7        0.0367
      6  CG       -12.0150   33.7390   -4.5620 C.3     7  GLN7        0.0905
      7  CD       -11.0140   34.8440   -4.2130 C.2     7  GLN7        0.2608
      8  OE1      -11.3980   35.9540   -3.8350 O.2     7  GLN7       -0.2717
      9  NE2       -9.7230   34.5280   -4.3460 N.am    7  GLN7       -0.0878
     10  N        -10.3680   35.1350   -8.7150 N.3     9  TRP9       -0.1241
     11  CA        -9.0000   35.5270   -8.9220 C.3     9  TRP9        0.1605
     12  C         -8.3720   34.6010   -9.9560 C.2     9  TRP9        0.2264
     13  O         -8.5040   33.3740   -9.8720 O.2     9  TRP9       -0.2867
     14  CB        -8.2540   35.4810   -7.5910 C.3     9  TRP9        0.0550
     15  CG        -6.8420   35.7310   -7.7510 C.ar    9  TRP9        0.0003
     16  CD1       -6.2290   36.9510   -7.8640 C.ar    9  TRP9        0.0946
     17  CD2       -5.8110   34.7490   -7.8770 C.ar    9  TRP9        0.0152
     18  NE1       -4.8750   36.7830   -8.0420 N.ar    9  TRP9       -0.2442
     19  CE2       -4.5880   35.4400   -8.0410 C.ar    9  TRP9        0.0810
     20  CE3       -5.7910   33.3500   -7.8630 C.ar    9  TRP9        0.0012
     21  CZ2       -3.3630   34.7800   -8.1870 C.ar    9  TRP9        0.0191
     22  CZ3       -4.5650   32.6900   -8.0010 C.ar    9  TRP9        0.0001
     23  CH2       -3.3740   33.4070   -8.1550 C.ar    9  TRP9        0.0015
     24  N         -3.0490   29.8890  -12.7460 N.3    35  ASN35      -0.1240
     25  CA        -3.7220   29.6730  -11.4730 C.3    35  ASN35       0.1653
     26  C         -5.0540   30.4120  -11.4110 C.2    35  ASN35       0.2266
     27  O         -5.2120   31.4810  -11.9540 O.2    35  ASN35      -0.2867
     28  CB        -2.9120   30.2260  -10.3130 C.3    35  ASN35       0.1155
     29  CG        -1.5300   29.6790  -10.2270 C.2    35  ASN35       0.2627
     30  OD1       -1.2770   28.7270   -9.4770 O.2    35  ASN35      -0.2716
     31  ND2       -0.5970   30.3100  -10.9200 N.am   35  ASN35      -0.0877
     32  N         -8.6070   30.8530   -8.4210 N.3    37  VAL37      -0.1245
     33  CA        -9.5170   30.4360   -7.3560 C.3    37  VAL37       0.1561
     34  C        -10.8160   31.2130   -7.5460 C.2    37  VAL37       0.2260
     35  O        -10.8330   32.4370   -7.4660 O.2    37  VAL37      -0.2867
     36  CB        -8.9260   30.7140   -5.9390 C.3    37  VAL37       0.0252
     37  CG1       -9.8880   30.2610   -4.8620 C.3    37  VAL37       0.0019
     38  CG2       -7.5760   30.0430   -5.7850 C.3    37  VAL37       0.0019
     39  N        -11.7670   27.3780    1.1410 N.3    69  TYR69      -0.1241
     40  CA       -10.6100   28.2000    0.8720 C.3    69  TYR69       0.1605
     41  C        -10.7910   29.4890    1.6120 C.2    69  TYR69       0.2264
     42  O        -11.8470   30.0590    1.5530 O.2    69  TYR69      -0.2867
     43  CB       -10.4830   28.4480   -0.6360 C.3    69  TYR69       0.0534
     44  CG        -9.3150   29.2900   -0.9930 C.ar   69  TYR69      -0.0201
     45  CD1       -8.0330   28.7730   -0.9960 C.ar   69  TYR69      -0.0009
     46  CD2       -9.4780   30.6290   -1.2720 C.ar   69  TYR69      -0.0009
     47  CE1       -6.9580   29.5740   -1.3010 C.ar   69  TYR69       0.0417
     48  CE2       -8.4150   31.4230   -1.5910 C.ar   69  TYR69       0.0417
     49  CZ        -7.1720   30.9000   -1.6070 C.ar   69  TYR69       0.1957
     50  OH        -6.1420   31.7360   -1.9050 O.3    69  TYR69      -0.2866
     51  N         -8.6580   32.8600    4.2720 N.3    71  TRP71      -0.1241
     52  CA        -7.5070   33.5060    4.8480 C.3    71  TRP71       0.1605
     53  C         -7.8160   34.0130    6.2500 C.2    71  TRP71       0.2264
     54  O         -8.9670   34.3360    6.5680 O.2    71  TRP71      -0.2867
     55  CB        -7.1000   34.7020    3.9980 C.3    71  TRP71       0.0550
     56  CG        -6.6250   34.3510    2.6440 C.ar   71  TRP71       0.0003
     57  CD1       -7.3980   34.0890    1.5480 C.ar   71  TRP71       0.0946
     58  CD2       -5.2670   34.2150    2.2190 C.ar   71  TRP71       0.0152
     59  NE1       -6.6040   33.7850    0.4710 N.ar   71  TRP71      -0.2442
     60  CE2       -5.2910   33.8570    0.8500 C.ar   71  TRP71       0.0810
     61  CE3       -4.0270   34.3580    2.8550 C.ar   71  TRP71       0.0012
     62  CZ2       -4.1220   33.6540    0.1020 C.ar   71  TRP71       0.0191
     63  CZ3       -2.8880   34.1500    2.1340 C.ar   71  TRP71       0.0001
     64  CH2       -2.9400   33.8030    0.7580 C.ar   71  TRP71       0.0015
     65  N         -3.1900   31.1590    4.7540 N.3    78  GLU78      -0.1245
     66  CA        -4.1200   30.6090    3.7880 C.3    78  GLU78       0.1567
     67  C         -4.5130   29.1990    4.2040 C.2    78  GLU78       0.2260
     68  O         -3.6450   28.3920    4.4680 O.2    78  GLU78      -0.2867
     69  CB        -3.4250   30.5390    2.4540 C.3    78  GLU78       0.0388
     70  CG        -4.3330   30.1070    1.3340 C.3    78  GLU78       0.1160
     71  CD        -3.5880   30.0650    0.0330 C.2    78  GLU78       0.3649
     72  OE1       -2.5340   29.3790   -0.0370 O.co2  78  GLU78      -0.2457
     73  OE2       -4.0740   30.7070   -0.9210 O.co2  78  GLU78      -0.2457
     74  N         -7.1840   25.5120    3.6740 N.3    80  TYR80      -0.1241
     75  CA        -7.8870   24.6670    2.7210 C.3    80  TYR80       0.1605
     76  C         -8.4980   23.5180    3.4430 C.2    80  TYR80       0.2264
     77  O         -7.8680   22.9650    4.3410 O.2    80  TYR80      -0.2867
     78  CB        -6.8770   24.0170    1.7870 C.3    80  TYR80       0.0534
     79  CG        -6.2820   24.8870    0.7200 C.ar   80  TYR80      -0.0201
     80  CD1       -5.1370   25.6430    0.9540 C.ar   80  TYR80      -0.0009
     81  CD2       -6.8370   24.9030   -0.5400 C.ar   80  TYR80      -0.0009
     82  CE1       -4.5670   26.3990   -0.0700 C.ar   80  TYR80       0.0417
     83  CE2       -6.3060   25.6610   -1.5420 C.ar   80  TYR80       0.0417
     84  CZ        -5.1810   26.4060   -1.3140 C.ar   80  TYR80       0.1957
     85  OH        -4.6990   27.1340   -2.3510 O.3    80  TYR80      -0.2866
     86  N          4.7870   29.3110    2.2230 N.3   112  ARG112     -0.1245
     87  CA         4.9370   29.9550    0.9270 C.3   112  ARG112      0.1563
     88  C          5.8140   31.2220    0.9820 C.2   112  ARG112      0.2260
     89  O          5.6730   32.0280    1.8690 O.2   112  ARG112     -0.2867
     90  CB         3.5500   30.3340    0.3890 C.3   112  ARG112      0.0307
     91  CG         2.6960   29.1410   -0.0130 C.3   112  ARG112      0.0489
     92  CD         3.0190   28.5810   -1.4030 C.3   112  ARG112      0.2205
     93  NE         2.1850   29.2530   -2.3960 N.pl3 112  ARG112     -0.0865
     94  CZ         2.5930   29.6740   -3.5930 C.cat 112  ARG112      0.5346
     95  NH1        3.8370   29.4980   -4.0030 N.pl3 112  ARG112      0.1354
     96  NH2        1.7380   30.2980   -4.3930 N.pl3 112  ARG112      0.1354
     97  N          1.8410   35.3060   -4.2170 N.3   116  PRO116     -0.2102
     98  CA         0.6530   36.1520   -4.1400 C.3   116  PRO116      0.1504
     99  C         -0.2630   35.7460   -2.9750 C.2   116  PRO116      0.2576
    100  O         -0.3410   34.5880   -2.6000 O.2   116  PRO116     -0.2718
    101  CB        -0.0390   35.9190   -5.4790 C.3   116  PRO116      0.0282
    102  CG         0.4590   34.6260   -5.9620 C.3   116  PRO116      0.0208
    103  CD         1.8200   34.4260   -5.4010 C.3   116  PRO116      0.0893
    104  N         -0.9370   36.7340   -2.4170 N.am  117  SER117     -0.1938
    105  CA        -1.7820   36.5770   -1.2560 C.3   117  SER117      0.2055
    106  C         -2.7290   37.7550   -1.2490 C.2   117  SER117      0.2642
    107  O         -2.6480   38.6280   -2.1200 O.2   117  SER117     -0.2714
    108  CB        -0.9480   36.5320    0.0430 C.3   117  SER117      0.2130
    109  OG        -0.5150   37.8200    0.4520 O.3   117  SER117     -0.2179
    110  N         -3.6400   37.7710   -0.2850 N.am  118  ILE118     -0.1977
    111  CA        -4.4830   38.9400   -0.0530 C.3   118  ILE118      0.1596
    112  C         -3.6900   40.1970    0.3590 C.2   118  ILE118      0.2287
    113  O         -4.2390   41.2690    0.3980 O.2   118  ILE118     -0.2864
    114  CB        -5.5790   38.6200    1.0030 C.3   118  ILE118      0.0276
    115  CG1       -4.9480   38.2200    2.3440 C.3   118  ILE118      0.0022
    116  CG2       -6.4800   37.5200    0.4790 C.3   118  ILE118      0.0022
    117  CD1       -5.9590   37.9720    3.4320 C.3   118  ILE118      0.0001
    118  N         -0.7190   41.0720   -1.3400 N.3   120  GLY120     -0.1210
    119  CA         0.0390   41.5100   -2.5160 C.3   120  GLY120      0.1956
    120  C          0.7870   40.3900   -3.2360 C.2   120  GLY120      0.2611
    121  O          0.5880   39.2170   -2.9300 O.2   120  GLY120     -0.2717
    122  N          1.6690   40.7370   -4.1720 N.am  121  ASP121     -0.1973
    123  CA         2.1770   39.7600   -5.1520 C.3   121  ASP121      0.1709
    124  C          3.3850   38.9630   -4.7080 C.2   121  ASP121      0.2293
    125  O          3.6490   37.8920   -5.2790 O.2   121  ASP121     -0.2864
    126  CB         2.5250   40.4420   -6.4930 C.3   121  ASP121      0.1436
    127  CG         1.3370   41.1540   -7.1090 C.2   121  ASP121      0.3671
    128  OD1        0.2120   40.6130   -6.9820 O.co2 121  ASP121     -0.2456
    129  OD2        1.4250   42.2560   -7.7280 O.co2 121  ASP121     -0.2456
    130  N          3.5560   33.4930    3.6310 N.3   125  PHE125     -0.1241
    131  CA         2.4580   33.0920    4.4990 C.3   125  PHE125      0.1605
    132  C          2.5020   31.5980    4.6890 C.2   125  PHE125      0.2264
    133  O          3.1630   30.8890    3.9540 O.2   125  PHE125     -0.2867
    134  CB         1.1010   33.5280    3.9300 C.3   125  PHE125      0.0534
    135  CG         0.8740   33.1000    2.5100 C.ar  125  PHE125     -0.0203
    136  CD1        0.1830   31.9350    2.2300 C.ar  125  PHE125     -0.0042
    137  CD2        1.3780   33.8430    1.4570 C.ar  125  PHE125     -0.0042
    138  CE1       -0.0070   31.5200    0.9320 C.ar  125  PHE125     -0.0003
    139  CE2        1.1720   33.4400    0.1560 C.ar  125  PHE125     -0.0003
    140  CZ         0.4770   32.2720   -0.1110 C.ar  125  PHE125     -0.0000
    141  N          0.3810   27.9790    4.9090 N.3   127  GLN127     -0.1245
    142  CA        -0.8480   27.3500    4.4780 C.3   127  GLN127      0.1566
    143  C         -1.2190   26.2400    5.4160 C.2   127  GLN127      0.2260
    144  O         -0.3690   25.4680    5.7790 O.2   127  GLN127     -0.2867
    145  CB        -0.6970   26.7500    3.0900 C.3   127  GLN127      0.0367
    146  CG        -0.2860   27.7270    2.0160 C.3   127  GLN127      0.0905
    147  CD        -0.0660   27.0130    0.7150 C.2   127  GLN127      0.2608
    148  OE1        0.6730   26.0300    0.6820 O.2   127  GLN127     -0.2717
    149  NE2       -0.7420   27.4580   -0.3430 N.am  127  GLN127     -0.0878
    150  N        -11.7560   36.4570    3.8630 N.3   166  TYR166     -0.1241
    151  CA       -12.8830   35.7450    3.2760 C.3   166  TYR166      0.1605
    152  C        -12.7710   34.2320    3.4550 C.2   166  TYR166      0.2264
    153  O        -11.7210   33.7090    3.7870 O.2   166  TYR166     -0.2867
    154  CB       -13.0760   36.1670    1.8280 C.3   166  TYR166      0.0534
    155  CG       -11.9340   35.8070    0.9400 C.ar  166  TYR166     -0.0201
    156  CD1      -11.6910   34.4780    0.5780 C.ar  166  TYR166     -0.0009
    157  CD2      -11.1200   36.7890    0.4110 C.ar  166  TYR166     -0.0009
    158  CE1      -10.6460   34.1450   -0.2580 C.ar  166  TYR166      0.0417
    159  CE2      -10.0800   36.4690   -0.4140 C.ar  166  TYR166      0.0417
    160  CZ        -9.8500   35.1270   -0.7440 C.ar  166  TYR166      0.1957
    161  OH        -8.8020   34.8180   -1.5630 O.3   166  TYR166     -0.2866
    162  N        -10.4550   25.6670   -7.4250 N.3   172  GLU172     -0.1245
    163  CA        -9.0950   26.1370   -7.7280 C.3   172  GLU172      0.1567
    164  C         -8.5330   25.2950   -8.8680 C.2   172  GLU172      0.2260
    165  O         -8.8830   24.1370   -9.0580 O.2   172  GLU172     -0.2867
    166  CB        -8.1680   26.0530   -6.5240 C.3   172  GLU172      0.0388
    167  CG        -6.6980   26.2190   -6.8900 C.3   172  GLU172      0.1160
    168  CD        -5.7840   26.5540   -5.7230 C.2   172  GLU172      0.3649
    169  OE1       -6.2550   26.7280   -4.5690 O.co2 172  GLU172     -0.2457
    170  OE2       -4.5690   26.6800   -5.9910 O.co2 172  GLU172     -0.2457
@<TRIPOS>BOND
     1    24    25    1
     2    27    26    2
     3    25    26    1
     4    25    28    1
     5    31    29   am
     6    28    29    1
     7    29    30    2
     8    12    13    2
     9    12    11    1
    10   165   164    2
    11    11    10    1
    12    11    14    1
    13   164   163    1
    14    32    33    1
    15    21    23   ar
    16    21    19   ar
    17    23    22   ar
    18    18    19   ar
    19    18    16   ar
    20    19    17   ar
    21    22    20   ar
    22    17    20   ar
    23    17    15   ar
    24    16    15   ar
    25    15    14    1
    26   129   127   ar
    27   163   162    1
    28   163   166    1
    29    34    35    2
    30    34    33    1
    31    33    36    1
    32     4     3    2
    33   127   128   ar
    34   127   126    1
    35   167   166    1
    36   167   168    1
    37     3     2    1
    38   126   123    1
    39   170   168   ar
    40   102   101    1
    41   102   103    1
    42    36    38    1
    43    36    37    1
    44   168   169   ar
    45   101    98    1
    46   103    97    1
    47   125   124    2
    48     2     1    1
    49     2     5    1
    50   123   124    1
    51   123   122    1
    52     6     5    1
    53     6     7    1
    54    96    94    1
    55     9     7   am
    56    97    98    1
    57     7     8    2
    58   122   120   am
    59    98    99    1
    60    95    94    1
    61    94    93    2
    62   120   121    2
    63   120   119    1
    64    99   100    2
    65    99   104   am
    66   119   118    1
    67   104   105    1
    68    93    92    1
    69    85    84    1
    70   107   106    2
    71    50    49    1
    72    49    48   ar
    73    49    47   ar
    74    48    46   ar
    75   161   160    1
    76    83    84   ar
    77    83    81   ar
    78    92    91    1
    79    84    82   ar
    80    47    45   ar
    81    46    44   ar
    82   105   106    1
    83   105   108    1
    84   106   110   am
    85    45    44   ar
    86    44    43    1
    87    73    71   ar
    88   160   159   ar
    89   160   158   ar
    90    43    40    1
    91    81    79   ar
    92   159   157   ar
    93   149   147   am
    94   110   111    1
    95   158   156   ar
    96   140   139   ar
    97   140   138   ar
    98    82    80   ar
    99   111   112    1
   100   111   114    1
   101    72    71   ar
   102    91    90    1
   103    71    70    1
   104   108   109    1
   105    62    64   ar
   106    62    60   ar
   107   139   137   ar
   108   112   113    2
   109    90    87    1
   110   157   155   ar
   111    59    60   ar
   112    59    57   ar
   113   116   114    1
   114   156   155   ar
   115   148   147    2
   116   147   146    1
   117    79    80   ar
   118    79    78    1
   119    64    63   ar
   120    60    58   ar
   121    40    39    1
   122    40    41    1
   123    87    88    1
   124    87    86    1
   125   138   136   ar
   126   155   154    1
   127    88    89    2
   128   114   115    1
   129    70    69    1
   130   137   135   ar
   131    57    56   ar
   132    42    41    2
   133    78    75    1
   134   154   151    1
   135   146   145    1
   136    63    61   ar
   137    58    56   ar
   138    58    61   ar
   139   136   135   ar
   140   115   117    1
   141    69    66    1
   142   135   134    1
   143    56    55    1
   144    75    76    1
   145    75    74    1
   146   145   142    1
   147   151   152    1
   148   151   150    1
   149    76    77    2
   150   152   153    2
   151   130   131    1
   152    66    67    1
   153    66    65    1
   154   134   131    1
   155   133   132    2
   156    55    52    1
   157    67    68    2
   158    51    52    1
   159   142   141    1
   160   142   143    1
   161   131   132    1
   162    52    53    1
   163   143   144    2
   164    53    54    2
