@<TRIPOS>MOLECULE
tmp/2b4bA01.pdb
 129 125 0 0 0
SMALL
GASTEIGER

@<TRIPOS>ATOM
      1  N         20.2420   19.7900    1.8790 N.3    21  LEU21      -0.1245
      2  CA        19.4110   20.4780    0.8950 C.3    21  LEU21       0.1561
      3  C         20.2640   21.1190   -0.1970 C.2    21  LEU21       0.2260
      4  O         19.9490   21.0100   -1.3810 O.2    21  LEU21      -0.2867
      5  CB        18.5560   21.5410    1.5780 C.3    21  LEU21       0.0270
      6  CG        17.6700   22.3750    0.6540 C.3    21  LEU21       0.0019
      7  CD1       16.6360   21.5170   -0.0730 C.3    21  LEU21       0.0001
      8  CD2       17.0100   23.4390    1.4840 C.3    21  LEU21       0.0001
      9  N         20.3870   20.6110   -4.1530 N.3    25  GLU25      -0.1245
     10  CA        20.2500   21.7030   -5.1070 C.3    25  GLU25       0.1567
     11  C         21.5590   22.0310   -5.8340 C.2    25  GLU25       0.2260
     12  O         21.6490   23.0620   -6.4920 O.2    25  GLU25      -0.2867
     13  CB        19.7520   22.9810   -4.4050 C.3    25  GLU25       0.0388
     14  CG        18.3580   22.8880   -3.7410 C.3    25  GLU25       0.1160
     15  CD        17.2120   22.9200   -4.7400 C.2    25  GLU25       0.3649
     16  OE1       17.4470   22.7760   -5.9550 O.co2  25  GLU25      -0.2457
     17  OE2       16.0630   23.0880   -4.2980 O.co2  25  GLU25      -0.2457
     18  N         28.7260   26.1550   -1.9940 N.3    29  GLN29      -0.1245
     19  CA        28.5150   27.5720   -1.7320 C.3    29  GLN29       0.1566
     20  C         27.8830   27.8920   -0.3790 C.2    29  GLN29       0.2260
     21  O         27.6090   29.0570   -0.0760 O.2    29  GLN29      -0.2867
     22  CB        27.6830   28.1870   -2.8710 C.3    29  GLN29       0.0367
     23  CG        28.4190   28.1870   -4.2030 C.3    29  GLN29       0.0905
     24  CD        27.5570   28.6360   -5.3560 C.2    29  GLN29       0.2608
     25  OE1       27.3010   27.8720   -6.2870 O.2    29  GLN29      -0.2717
     26  NE2       27.1060   29.8880   -5.3090 N.am   29  GLN29      -0.0878
     27  N          7.7660   34.1330    3.7220 N.3    85  TYR85      -0.1227
     28  CA         8.6600   33.6660    2.6820 C.3    85  TYR85       0.1736
     29  C          9.3740   32.4140    3.1350 C.2    85  TYR85       0.2595
     30  O         10.0660   32.4140    4.1340 O.2    85  TYR85      -0.2718
     31  CB         9.6930   34.7370    2.3020 C.3    85  TYR85       0.0548
     32  CG        10.4810   34.3610    1.0550 C.ar   85  TYR85      -0.0200
     33  CD1       10.0380   34.7510   -0.2020 C.ar   85  TYR85      -0.0009
     34  CD2       11.6230   33.5560    1.1320 C.ar   85  TYR85      -0.0009
     35  CE1       10.7000   34.3460   -1.3590 C.ar   85  TYR85       0.0417
     36  CE2       12.2950   33.1380   -0.0380 C.ar   85  TYR85       0.0417
     37  CZ        11.8140   33.5390   -1.2710 C.ar   85  TYR85       0.1957
     38  OH        12.3960   33.1030   -2.4450 O.3    85  TYR85      -0.2866
     39  N          9.2270   31.3420    2.3820 N.am   86  LEU86      -0.1966
     40  CA         9.8330   30.0790    2.7700 C.3    86  LEU86       0.1728
     41  C         11.1810   29.9640    2.0720 C.2    86  LEU86       0.2616
     42  O         11.2530   29.7610    0.8670 O.2    86  LEU86      -0.2715
     43  CB         8.8720   28.9410    2.3930 C.3    86  LEU86       0.0311
     44  CG         9.2700   27.4790    2.6200 C.3    86  LEU86       0.0022
     45  CD1        9.7330   27.2590    4.0600 C.3    86  LEU86       0.0001
     46  CD2        8.0750   26.5900    2.3040 C.3    86  LEU86       0.0001
     47  N         12.2580   30.1080    2.8440 N.am   87  GLU87      -0.1963
     48  CA        13.5970   30.0580    2.2830 C.3    87  GLU87       0.1733
     49  C         14.1040   28.6420    1.9990 C.2    87  GLU87       0.2616
     50  O         14.6270   28.3900    0.9310 O.2    87  GLU87      -0.2715
     51  CB        14.5930   30.7930    3.2050 C.3    87  GLU87       0.0429
     52  CG        16.0410   30.7720    2.7040 C.3    87  GLU87       0.1163
     53  CD        16.2160   31.4100    1.3290 C.2    87  GLU87       0.3649
     54  OE1       17.2290   31.1470    0.6700 O.co2  87  GLU87      -0.2457
     55  OE2       15.3420   32.1820    0.9010 O.co2  87  GLU87      -0.2457
     56  N         13.9650   27.7340    2.9710 N.am   88  ASP88      -0.1957
     57  CA        14.4180   26.3500    2.8140 C.3    88  ASP88       0.1840
     58  C         13.3820   25.4080    3.4020 C.2    88  ASP88       0.2622
     59  O         12.7480   25.7160    4.4030 O.2    88  ASP88      -0.2715
     60  CB        15.7650   26.1100    3.5270 C.3    88  ASP88       0.1450
     61  CG        16.9060   26.9770    2.9730 C.2    88  ASP88       0.3671
     62  OD1       17.2940   26.8140    1.7980 O.co2  88  ASP88      -0.2456
     63  OD2       17.4340   27.8170    3.7280 O.co2  88  ASP88      -0.2456
     64  N         13.2340   24.2490    2.7910 N.am   89  PHE89      -0.1974
     65  CA        12.2460   23.2550    3.2230 C.3    89  PHE89       0.1639
     66  C         12.8450   21.9130    2.7630 C.2    89  PHE89       0.2290
     67  O         13.1260   21.7030    1.5900 O.2    89  PHE89      -0.2864
     68  CB        10.9130   23.5940    2.5330 C.3    89  PHE89       0.0560
     69  CG         9.7570   22.6350    2.8150 C.ar   89  PHE89      -0.0200
     70  CD1        9.5630   22.0570    4.0630 C.ar   89  PHE89      -0.0042
     71  CD2        8.7850   22.4320    1.8360 C.ar   89  PHE89      -0.0042
     72  CE1        8.3950   21.2890    4.3480 C.ar   89  PHE89      -0.0003
     73  CE2        7.6200   21.6680    2.1060 C.ar   89  PHE89      -0.0003
     74  CZ         7.4310   21.0980    3.3800 C.ar   89  PHE89      -0.0000
     75  N          7.9990   31.2610   -2.3680 N.3   119  PHE119     -0.1227
     76  CA         9.1940   30.4170   -2.3330 C.3   119  PHE119      0.1736
     77  C          9.6730   30.1080   -3.7760 C.2   119  PHE119      0.2595
     78  O          8.9340   30.3210   -4.7560 O.2   119  PHE119     -0.2718
     79  CB         8.9110   29.1230   -1.5570 C.3   119  PHE119      0.0547
     80  CG         7.6360   28.4310   -1.9610 C.ar  119  PHE119     -0.0202
     81  CD1        7.6180   27.5300   -3.0220 C.ar  119  PHE119     -0.0042
     82  CD2        6.4410   28.7140   -1.3100 C.ar  119  PHE119     -0.0042
     83  CE1        6.4260   26.9220   -3.4340 C.ar  119  PHE119     -0.0003
     84  CE2        5.2470   28.1100   -1.7120 C.ar  119  PHE119     -0.0003
     85  CZ         5.2450   27.2120   -2.7810 C.ar  119  PHE119     -0.0000
     86  N         10.9200   29.6760   -3.9080 N.am  120  LEU120     -0.1966
     87  CA        11.4800   29.3120   -5.2060 C.3   120  LEU120      0.1728
     88  C         11.5980   27.8070   -5.3060 C.2   120  LEU120      0.2616
     89  O         11.7920   27.1010   -4.3130 O.2   120  LEU120     -0.2715
     90  CB        12.8790   29.9000   -5.4050 C.3   120  LEU120      0.0311
     91  CG        13.0650   31.4120   -5.4230 C.3   120  LEU120      0.0022
     92  CD1       14.5420   31.7120   -5.1450 C.3   120  LEU120      0.0001
     93  CD2       12.6510   31.9920   -6.7750 C.3   120  LEU120      0.0001
     94  N         11.4850   27.3180   -6.5280 N.am  121  VAL121     -0.1977
     95  CA        11.6060   25.9060   -6.7720 C.3   121  VAL121      0.1596
     96  C         12.4290   25.7350   -8.0550 C.2   121  VAL121      0.2287
     97  O         12.2700   26.5020   -9.0000 O.2   121  VAL121     -0.2864
     98  CB        10.2330   25.2670   -6.9510 C.3   121  VAL121      0.0276
     99  CG1       10.3860   23.7770   -7.1660 C.3   121  VAL121      0.0022
    100  CG2        9.3820   25.5490   -5.7380 C.3   121  VAL121      0.0022
    101  N          3.6250   21.1330   -4.1770 N.3   132  TYR132     -0.1241
    102  CA         3.1080   22.4660   -3.9210 C.3   132  TYR132      0.1605
    103  C          1.8400   22.7350   -4.7080 C.2   132  TYR132      0.2264
    104  O          0.8870   23.3050   -4.1760 O.2   132  TYR132     -0.2867
    105  CB         4.1330   23.5520   -4.2930 C.3   132  TYR132      0.0534
    106  CG         5.4020   23.6160   -3.4690 C.ar  132  TYR132     -0.0201
    107  CD1        5.3760   23.8440   -2.0960 C.ar  132  TYR132     -0.0009
    108  CD2        6.6360   23.5330   -4.0870 C.ar  132  TYR132     -0.0009
    109  CE1        6.5640   23.9980   -1.3700 C.ar  132  TYR132      0.0417
    110  CE2        7.8160   23.6800   -3.3870 C.ar  132  TYR132      0.0417
    111  CZ         7.7880   23.9140   -2.0430 C.ar  132  TYR132      0.1957
    112  OH         9.0020   24.0920   -1.3940 O.3   132  TYR132     -0.2866
    113  N         13.8800   36.2240  -11.1820 N.3   148  LEU148     -0.1245
    114  CA        14.6860   36.6890  -10.0800 C.3   148  LEU148      0.1561
    115  C         16.0460   37.1670  -10.6140 C.2   148  LEU148      0.2260
    116  O         16.7200   36.4540  -11.3370 O.2   148  LEU148     -0.2867
    117  CB        14.8680   35.5630   -9.0710 C.3   148  LEU148      0.0270
    118  CG        15.7850   35.8360   -7.8820 C.3   148  LEU148      0.0019
    119  CD1       15.3160   37.0730   -7.0950 C.3   148  LEU148      0.0001
    120  CD2       15.8140   34.5900   -7.0210 C.3   148  LEU148      0.0001
    121  N         19.7960   39.4020   -9.5920 N.3   150  LYS150     -0.1245
    122  CA        20.7210   39.6570   -8.4870 C.3   150  LYS150      0.1561
    123  C         21.8240   40.6030   -8.9480 C.2   150  LYS150      0.2260
    124  O         22.1840   40.6100  -10.1260 O.2   150  LYS150     -0.2867
    125  CB        21.4010   38.3540   -8.0540 C.3   150  LYS150      0.0271
    126  CG        22.1780   37.7010   -9.2150 C.3   150  LYS150      0.0035
    127  CD        23.0300   36.5080   -8.8180 C.3   150  LYS150      0.0206
    128  CE        24.4060   36.9520   -8.3580 C.3   150  LYS150      0.1093
    129  NZ        25.3250   35.8100   -8.0520 N.3   150  LYS150     -0.1314
@<TRIPOS>BOND
     1   116   115    2
     2   113   114    1
     3   115   114    1
     4   124   123    2
     5   114   117    1
     6   121   122    1
     7   126   127    1
     8   126   125    1
     9   117   118    1
    10    97    96    2
    11   123   122    1
    12   127   128    1
    13   122   125    1
    14   128   129    1
    15    96    95    1
    16   118   119    1
    17   118   120    1
    18    99    98    1
    19    98    95    1
    20    98   100    1
    21    93    91    1
    22    95    94    1
    23    94    88   am
    24    12    11    2
    25    25    24    2
    26    16    15   ar
    27    11    10    1
    28    91    90    1
    29    91    92    1
    30    90    87    1
    31    24    26   am
    32    24    23    1
    33    88    87    1
    34    88    89    2
    35    87    86    1
    36    10    13    1
    37    10     9    1
    38    78    77    2
    39    15    17   ar
    40    15    14    1
    41   103   104    2
    42   103   102    1
    43    13    14    1
    44   105   102    1
    45   105   106    1
    46    23    22    1
    47   101   102    1
    48   108   106   ar
    49   108   110   ar
    50    86    77   am
    51    77    76    1
    52   106   107   ar
    53    83    81   ar
    54    83    85   ar
    55   110   111   ar
    56    81    80   ar
    57    22    19    1
    58    85    84   ar
    59    38    37    1
    60    75    76    1
    61    76    79    1
    62   107   109   ar
    63   111   112    1
    64   111   109   ar
    65    18    19    1
    66    80    79    1
    67    80    82   ar
    68    19    20    1
    69    84    82   ar
    70     4     3    2
    71    35    37   ar
    72    35    33   ar
    73    37    36   ar
    74    20    21    2
    75    33    32   ar
    76     3     2    1
    77     7     6    1
    78    36    34   ar
    79     6     8    1
    80     6     5    1
    81    54    53   ar
    82    42    41    2
    83     2     5    1
    84     2     1    1
    85    55    53   ar
    86    50    49    2
    87    32    34   ar
    88    32    31    1
    89    53    52    1
    90    67    66    2
    91    62    61   ar
    92    71    73   ar
    93    71    69   ar
    94    49    48    1
    95    49    56   am
    96    41    40    1
    97    41    47   am
    98    73    74   ar
    99    48    47    1
   100    48    51    1
   101    31    28    1
   102    46    44    1
   103    39    40    1
   104    39    29   am
   105    43    44    1
   106    43    40    1
   107    68    69    1
   108    68    65    1
   109    44    45    1
   110    28    29    1
   111    28    27    1
   112    52    51    1
   113    66    65    1
   114    64    65    1
   115    64    58   am
   116    57    56    1
   117    57    58    1
   118    57    60    1
   119    69    70   ar
   120    61    60    1
   121    61    63   ar
   122    29    30    2
   123    74    72   ar
   124    58    59    2
   125    70    72   ar
