@<TRIPOS>MOLECULE
tmp/2b4fA00.pdb
 260 258 0 0 0
SMALL
GASTEIGER

@<TRIPOS>ATOM
      1  N        -17.7710   -2.7470   19.1810 N.3    70  ASP70      -0.1239
      2  CA       -17.7970   -4.2100   19.3010 C.3    70  ASP70       0.1674
      3  C        -17.8080   -4.7220   20.7570 C.2    70  ASP70       0.2266
      4  O        -18.6540   -5.5550   21.1230 O.2    70  ASP70      -0.2867
      5  CB       -16.5630   -4.7930   18.6110 C.3    70  ASP70       0.1410
      6  CG       -16.5900   -4.7050   17.0930 C.2    70  ASP70       0.3668
      7  OD1      -17.6530   -4.3660   16.5220 O.co2  70  ASP70      -0.2456
      8  OD2      -15.5610   -4.9570   16.4720 O.co2  70  ASP70      -0.2456
      9  N         -7.7990    3.4370   28.4190 N.3    76  ARG76      -0.1245
     10  CA        -6.5110    2.7710   28.2890 C.3    76  ARG76       0.1563
     11  C         -5.3660    3.6850   28.7010 C.2    76  ARG76       0.2260
     12  O         -5.4210    4.8930   28.4820 O.2    76  ARG76      -0.2867
     13  CB        -6.3350    2.2750   26.8630 C.3    76  ARG76       0.0307
     14  CG        -7.2900    1.1410   26.5410 C.3    76  ARG76       0.0489
     15  CD        -7.2950    0.6350   25.0980 C.3    76  ARG76       0.2205
     16  NE        -8.3690   -0.3480   24.9890 N.pl3  76  ARG76      -0.0865
     17  CZ        -8.3760   -1.4150   24.2130 C.cat  76  ARG76       0.5346
     18  NH1       -7.3720   -1.6750   23.3830 N.pl3  76  ARG76       0.1354
     19  NH2       -9.4180   -2.2400   24.2750 N.pl3  76  ARG76       0.1354
     20  N         -2.2650    3.8970   27.4720 N.3    78  GLU78      -0.1245
     21  CA        -1.6000    4.4910   26.3270 C.3    78  GLU78       0.1567
     22  C         -2.3410    5.7110   25.7630 C.2    78  GLU78       0.2260
     23  O         -1.7290    6.7290   25.4590 O.2    78  GLU78      -0.2867
     24  CB        -1.4100    3.4450   25.2330 C.3    78  GLU78       0.0388
     25  CG        -0.0280    2.8980   25.3060 C.3    78  GLU78       0.1160
     26  CD         0.1980    1.8000   24.3230 C.2    78  GLU78       0.3649
     27  OE1        0.4900    2.1640   23.1470 O.co2  78  GLU78      -0.2457
     28  OE2        0.0990    0.6220   24.7800 O.co2  78  GLU78      -0.2457
     29  N         -4.0540   -1.2490   32.6430 N.3   124  TRP124     -0.1241
     30  CA        -4.1120   -0.8290   31.2520 C.3   124  TRP124      0.1605
     31  C         -5.5080   -0.6050   30.7280 C.2   124  TRP124      0.2264
     32  O         -5.6750    0.1370   29.7570 O.2   124  TRP124     -0.2867
     33  CB        -3.3360   -1.7440   30.3290 C.3   124  TRP124      0.0550
     34  CG        -4.0300   -2.9650   29.8440 C.ar  124  TRP124      0.0003
     35  CD1       -4.0700   -4.1910   30.4630 C.ar  124  TRP124      0.0946
     36  CD2       -4.7380   -3.1210   28.6070 C.ar  124  TRP124      0.0152
     37  NE1       -4.7760   -5.0820   29.6880 N.ar  124  TRP124     -0.2442
     38  CE2       -5.1950   -4.4560   28.5460 C.ar  124  TRP124      0.0810
     39  CE3       -5.0330   -2.2660   27.5360 C.ar  124  TRP124      0.0012
     40  CZ2       -5.9240   -4.9560   27.4590 C.ar  124  TRP124      0.0191
     41  CZ3       -5.7440   -2.7580   26.4670 C.ar  124  TRP124      0.0001
     42  CH2       -6.1930   -4.0950   26.4390 C.ar  124  TRP124      0.0015
     43  N         -8.5770   -4.9390   33.7030 N.3   138  ASP138     -0.1239
     44  CA        -7.3090   -5.6510   33.8310 C.3   138  ASP138      0.1674
     45  C         -6.3270   -4.7260   34.5570 C.2   138  ASP138      0.2266
     46  O         -6.0320   -3.6070   34.0930 O.2   138  ASP138     -0.2867
     47  CB        -6.8150   -6.0500   32.4410 C.3   138  ASP138      0.1410
     48  CG        -5.5530   -6.8730   32.4610 C.2   138  ASP138      0.3668
     49  OD1       -4.9260   -7.1010   33.5190 O.co2 138  ASP138     -0.2456
     50  OD2       -5.1080   -7.3600   31.4140 O.co2 138  ASP138     -0.2456
     51  N         -3.1790   -5.4680   35.1100 N.3   140  GLY140     -0.1210
     52  CA        -1.8890   -5.5710   34.4430 C.3   140  GLY140      0.1940
     53  C         -1.5600   -4.3050   33.6500 C.2   140  GLY140      0.2454
     54  O         -2.4760   -3.6230   33.1640 O.2   140  GLY140     -0.2732
     55  N         -0.2760   -3.9850   33.5200 N.am  141  PRO141     -0.2717
     56  CA         0.1510   -2.8230   32.7340 C.3   141  PRO141      0.1535
     57  C          0.3560   -3.0940   31.2430 C.2   141  PRO141      0.2598
     58  O          0.5600   -4.2170   30.7960 O.2   141  PRO141     -0.2715
     59  CB         1.4780   -2.4420   33.3970 C.3   141  PRO141      0.0310
     60  CG         2.0760   -3.7570   33.8130 C.3   141  PRO141      0.0237
     61  CD         0.8810   -4.6620   34.1490 C.3   141  PRO141      0.0939
     62  N          0.2650   -2.0210   30.4720 N.am  142  ALA142     -0.1978
     63  CA         0.7090   -1.9780   29.0790 C.3   142  ALA142      0.1597
     64  C          1.8470   -0.9450   29.0810 C.2   142  ALA142      0.2287
     65  O          1.5980    0.2620   29.0420 O.2   142  ALA142     -0.2864
     66  CB        -0.4330   -1.5400   28.1910 C.3   142  ALA142      0.0319
     67  N          6.8310   -6.5320   27.4420 N.3   191  PHE191     -0.1227
     68  CA         5.4370   -6.6490   27.0680 C.3   191  PHE191      0.1736
     69  C          4.5790   -6.8550   28.3360 C.2   191  PHE191      0.2596
     70  O          3.5160   -6.2620   28.4730 O.2   191  PHE191     -0.2718
     71  CB         5.2290   -7.7880   26.0620 C.3   191  PHE191      0.0547
     72  CG         3.7920   -8.0100   25.7200 C.ar  191  PHE191     -0.0202
     73  CD1        3.1550   -7.1980   24.7880 C.ar  191  PHE191     -0.0042
     74  CD2        3.0560   -8.9620   26.3870 C.ar  191  PHE191     -0.0042
     75  CE1        1.8270   -7.3630   24.5160 C.ar  191  PHE191     -0.0003
     76  CE2        1.7120   -9.1290   26.1200 C.ar  191  PHE191     -0.0003
     77  CZ         1.1040   -8.3490   25.1770 C.ar  191  PHE191     -0.0000
     78  N          5.0490   -7.6890   29.2680 N.am  192  SER192     -0.1952
     79  CA         4.3150   -7.9210   30.5070 C.3   192  SER192      0.1924
     80  C          5.2310   -8.3700   31.6520 C.2   192  SER192      0.2314
     81  O          6.1740   -9.0820   31.4240 O.2   192  SER192     -0.2863
     82  CB         3.2530   -8.9960   30.2930 C.3   192  SER192      0.2116
     83  OG         2.4650   -9.1210   31.4660 O.3   192  SER192     -0.2180
     84  N          4.5400  -10.6300   33.6030 N.3   194  TYR194     -0.1227
     85  CA         4.2570  -12.0650   33.7490 C.3   194  TYR194      0.1736
     86  C          4.8530  -12.9610   32.6630 C.2   194  TYR194      0.2595
     87  O          4.6310  -14.1730   32.6710 O.2   194  TYR194     -0.2718
     88  CB         2.7400  -12.2600   33.8350 C.3   194  TYR194      0.0548
     89  CG         2.1400  -11.4490   34.9530 C.ar  194  TYR194     -0.0200
     90  CD1        2.2310  -11.8820   36.2850 C.ar  194  TYR194     -0.0009
     91  CD2        1.5400  -10.2270   34.7020 C.ar  194  TYR194     -0.0009
     92  CE1        1.7010  -11.1120   37.3330 C.ar  194  TYR194      0.0417
     93  CE2        1.0150   -9.4500   35.7360 C.ar  194  TYR194      0.0417
     94  CZ         1.1010   -9.8940   37.0480 C.ar  194  TYR194      0.1957
     95  OH         0.5730   -9.1150   38.0630 O.3   194  TYR194     -0.2866
     96  N          5.6310  -12.3910   31.7420 N.am  195  ILE195     -0.1980
     97  CA         6.2450  -13.1810   30.6730 C.3   195  ILE195      0.1595
     98  C          7.6630  -12.6940   30.4660 C.2   195  ILE195      0.2287
     99  O          7.9050  -11.4790   30.3670 O.2   195  ILE195     -0.2864
    100  CB         5.4200  -13.0540   29.3530 C.3   195  ILE195      0.0276
    101  CG1        3.9600  -13.4500   29.5820 C.3   195  ILE195      0.0022
    102  CG2        6.0080  -13.9230   28.2730 C.3   195  ILE195      0.0022
    103  CD1        3.0160  -13.0980   28.4330 C.3   195  ILE195      0.0001
    104  N          7.0400   -0.5360   21.5120 N.3   203  TYR203     -0.1241
    105  CA         7.2230    0.0950   22.8100 C.3   203  TYR203      0.1605
    106  C          8.5820    0.7930   22.8980 C.2   203  TYR203      0.2264
    107  O          8.8570    1.4920   23.8680 O.2   203  TYR203     -0.2867
    108  CB         7.1330   -0.9360   23.9400 C.3   203  TYR203      0.0534
    109  CG         5.8000   -1.6330   24.1470 C.ar  203  TYR203     -0.0201
    110  CD1        4.6940   -1.4350   23.2830 C.ar  203  TYR203     -0.0009
    111  CD2        5.6370   -2.4910   25.2230 C.ar  203  TYR203     -0.0009
    112  CE1        3.4880   -2.0970   23.4940 C.ar  203  TYR203      0.0417
    113  CE2        4.4320   -3.1220   25.4670 C.ar  203  TYR203      0.0417
    114  CZ         3.3660   -2.9410   24.5960 C.ar  203  TYR203      0.1957
    115  OH         2.1920   -3.6080   24.8430 O.3   203  TYR203     -0.2866
    116  N          4.5620   -7.3750   15.7140 N.3   254  PHE254     -0.1241
    117  CA         3.8810   -7.1800   16.9970 C.3   254  PHE254      0.1605
    118  C          4.7900   -7.5310   18.1770 C.2   254  PHE254      0.2264
    119  O          5.0150   -6.7010   19.0740 O.2   254  PHE254     -0.2867
    120  CB         2.6020   -8.0350   16.9490 C.3   254  PHE254      0.0534
    121  CG         1.9130   -8.2360   18.2620 C.ar  254  PHE254     -0.0203
    122  CD1        1.9200   -7.2710   19.2560 C.ar  254  PHE254     -0.0042
    123  CD2        1.2090   -9.4180   18.4930 C.ar  254  PHE254     -0.0042
    124  CE1        1.2590   -7.4930   20.4790 C.ar  254  PHE254     -0.0003
    125  CE2        0.5560   -9.6370   19.7040 C.ar  254  PHE254     -0.0003
    126  CZ         0.5890   -8.6670   20.6980 C.ar  254  PHE254     -0.0000
    127  N          1.3190  -17.2390   24.3890 N.3   268  PHE268     -0.1227
    128  CA         0.6890  -17.1170   25.7130 C.3   268  PHE268      0.1736
    129  C         -0.8170  -16.9670   25.6320 C.2   268  PHE268      0.2595
    130  O         -1.3550  -16.4090   24.6720 O.2   268  PHE268     -0.2718
    131  CB         1.2910  -15.9530   26.5370 C.3   268  PHE268      0.0547
    132  CG         0.9410  -14.5770   25.9970 C.ar  268  PHE268     -0.0202
    133  CD1       -0.2380  -13.9460   26.3670 C.ar  268  PHE268     -0.0042
    134  CD2        1.8000  -13.9220   25.1330 C.ar  268  PHE268     -0.0042
    135  CE1       -0.5610  -12.6790   25.8670 C.ar  268  PHE268     -0.0003
    136  CE2        1.4820  -12.6580   24.6330 C.ar  268  PHE268     -0.0003
    137  CZ         0.3060  -12.0440   25.0020 C.ar  268  PHE268     -0.0000
    138  N         -1.5020  -17.4860   26.6520 N.am  269  ASN269     -0.1960
    139  CA        -2.9510  -17.3930   26.7480 C.3   269  ASN269      0.1819
    140  C         -3.3800  -15.9230   26.9470 C.2   269  ASN269      0.2622
    141  O         -2.8790  -15.2500   27.8590 O.2   269  ASN269     -0.2715
    142  CB        -3.4850  -18.2370   27.9240 C.3   269  ASN269      0.1195
    143  CG        -3.5050  -19.7500   27.6290 C.2   269  ASN269      0.2630
    144  OD1       -3.3180  -20.5840   28.5300 O.2   269  ASN269     -0.2716
    145  ND2       -3.7350  -20.0950   26.3940 N.am  269  ASN269     -0.0877
    146  N         -4.2980  -15.4570   26.1090 N.am  270  GLY270     -0.1940
    147  CA        -4.7280  -14.0650   26.1060 C.3   270  GLY270      0.2014
    148  C         -4.1430  -13.2650   24.9430 C.2   270  GLY270      0.2639
    149  O         -4.5590  -12.1450   24.7010 O.2   270  GLY270     -0.2714
    150  N         -3.1990  -13.8420   24.1980 N.am  271  GLN271     -0.1963
    151  CA        -2.4950  -13.1160   23.1540 C.3   271  GLN271      0.1733
    152  C         -3.4510  -12.7110   22.0180 C.2   271  GLN271      0.2616
    153  O         -4.1910  -13.5310   21.4860 O.2   271  GLN271     -0.2715
    154  CB        -1.3200  -13.9510   22.6320 C.3   271  GLN271      0.0408
    155  CG        -0.4760  -13.2720   21.5580 C.3   271  GLN271      0.0908
    156  CD         0.6380  -14.1540   21.0590 C.2   271  GLN271      0.2608
    157  OE1        1.1840  -13.9570   19.9500 O.2   271  GLN271     -0.2717
    158  NE2        1.0080  -15.1140   21.8740 N.am  271  GLN271     -0.0878
    159  N         -3.4060  -11.4390   21.6350 N.am  272  ALA272     -0.1977
    160  CA        -4.4060  -10.8690   20.7350 C.3   272  ALA272      0.1597
    161  C         -4.2680  -11.3520   19.3030 C.2   272  ALA272      0.2287
    162  O         -5.2640  -11.6080   18.6370 O.2   272  ALA272     -0.2864
    163  CB        -4.3300   -9.3250   20.7650 C.3   272  ALA272      0.0319
    164  N         -1.6260   -3.6250   14.4520 N.3   280  PHE280     -0.1227
    165  CA        -1.9020   -2.3180   15.0720 C.3   280  PHE280      0.1736
    166  C         -0.7590   -1.7750   15.9560 C.2   280  PHE280      0.2595
    167  O         -0.4230   -0.5840   15.8930 O.2   280  PHE280     -0.2718
    168  CB        -3.2270   -2.4340   15.8450 C.3   280  PHE280      0.0547
    169  CG        -4.2820   -3.1490   15.0520 C.ar  280  PHE280     -0.0202
    170  CD1       -4.9370   -2.4880   14.0270 C.ar  280  PHE280     -0.0042
    171  CD2       -4.5590   -4.5080   15.2770 C.ar  280  PHE280     -0.0042
    172  CE1       -5.8770   -3.1500   13.2450 C.ar  280  PHE280     -0.0003
    173  CE2       -5.5000   -5.1790   14.4920 C.ar  280  PHE280     -0.0003
    174  CZ        -6.1540   -4.4880   13.4760 C.ar  280  PHE280     -0.0000
    175  N         -0.1680   -2.6270   16.7830 N.am  281  ASP281     -0.1974
    176  CA         1.0280   -2.2230   17.5360 C.3   281  ASP281      0.1709
    177  C          2.1780   -1.8720   16.5590 C.2   281  ASP281      0.2293
    178  O          2.7910   -0.8080   16.6570 O.2   281  ASP281     -0.2864
    179  CB         1.5280   -3.3320   18.4440 C.3   281  ASP281      0.1436
    180  CG         0.7710   -3.4380   19.7610 C.2   281  ASP281      0.3671
    181  OD1       -0.3880   -3.0090   19.8510 O.co2 281  ASP281     -0.2456
    182  OD2        1.2990   -3.9800   20.7650 O.co2 281  ASP281     -0.2456
    183  N          2.4460   -0.9150   13.5430 N.3   283  TRP283     -0.1227
    184  CA         2.3470    0.3230   12.7710 C.3   283  TRP283      0.1737
    185  C          3.2750    1.4020   13.3220 C.2   283  TRP283      0.2595
    186  O          3.8350    2.2330   12.5750 O.2   283  TRP283     -0.2718
    187  CB         0.9410    0.9250   12.8490 C.3   283  TRP283      0.0564
    188  CG        -0.1950    0.2020   12.2280 C.ar  283  TRP283      0.0003
    189  CD1       -0.1660   -0.9110   11.4450 C.ar  283  TRP283      0.0946
    190  CD2       -1.5680    0.5610   12.3610 C.ar  283  TRP283      0.0152
    191  NE1       -1.4410   -1.2680   11.0910 N.ar  283  TRP283     -0.2442
    192  CE2       -2.3210   -0.3710   11.6300 C.ar  283  TRP283      0.0810
    193  CE3       -2.2400    1.5850   13.0320 C.ar  283  TRP283      0.0012
    194  CZ2       -3.7110   -0.3130   11.5580 C.ar  283  TRP283      0.0191
    195  CZ3       -3.6220    1.6550   12.9450 C.ar  283  TRP283      0.0001
    196  CH2       -4.3420    0.7000   12.2270 C.ar  283  TRP283      0.0015
    197  N          3.4090    1.4240   14.6480 N.am  284  ARG284     -0.1980
    198  CA         4.1020    2.5170   15.3100 C.3   284  ARG284      0.1597
    199  C          5.6090    2.3790   15.2810 C.2   284  ARG284      0.2287
    200  O          6.3120    3.3440   15.5520 O.2   284  ARG284     -0.2864
    201  CB         3.6110    2.6520   16.7380 C.3   284  ARG284      0.0334
    202  CG         2.1140    2.8570   16.7860 C.3   284  ARG284      0.0492
    203  CD         1.5170    2.6630   18.0960 C.3   284  ARG284      0.2205
    204  NE         1.8290    1.3650   18.7000 N.pl3 284  ARG284     -0.0865
    205  CZ         1.4330    1.0450   19.9060 C.cat 284  ARG284      0.5346
    206  NH1        0.6910    1.9010   20.5760 N.pl3 284  ARG284      0.1354
    207  NH2        1.7740   -0.1100   20.4470 N.pl3 284  ARG284      0.1354
    208  N         -3.9660   -3.0110    6.6380 N.3   327  GLN327     -0.1245
    209  CA        -3.6730   -2.7880    8.0540 C.3   327  GLN327      0.1566
    210  C         -2.8250   -3.8980    8.6730 C.2   327  GLN327      0.2260
    211  O         -2.0970   -3.6580    9.6500 O.2   327  GLN327     -0.2867
    212  CB        -4.9840   -2.6030    8.8320 C.3   327  GLN327      0.0367
    213  CG        -5.6970   -1.2870    8.4630 C.3   327  GLN327      0.0905
    214  CD        -6.9380   -0.9990    9.3050 C.2   327  GLN327      0.2608
    215  OE1       -7.0590   -1.4770   10.4280 O.2   327  GLN327     -0.2717
    216  NE2       -7.8480   -0.1990    8.7620 N.am  327  GLN327     -0.0878
    217  N        -14.1980    4.3070   15.1470 N.3   378  TYR378     -0.1241
    218  CA       -12.8220    3.8340   15.2210 C.3   378  TYR378      0.1605
    219  C        -11.8570    4.9720   15.4230 C.2   378  TYR378      0.2264
    220  O        -10.6650    4.8400   15.1700 O.2   378  TYR378     -0.2867
    221  CB       -12.4550    3.0090   13.9770 C.3   378  TYR378      0.0534
    222  CG       -13.2600    1.7340   13.9160 C.ar  378  TYR378     -0.0201
    223  CD1      -13.1190    0.7610   14.9110 C.ar  378  TYR378     -0.0009
    224  CD2      -14.2080    1.5210   12.9130 C.ar  378  TYR378     -0.0009
    225  CE1      -13.8780   -0.4140   14.8870 C.ar  378  TYR378      0.0417
    226  CE2      -14.9710    0.3480   12.8800 C.ar  378  TYR378      0.0417
    227  CZ       -14.8000   -0.6080   13.8710 C.ar  378  TYR378      0.1957
    228  OH       -15.5460   -1.7690   13.8730 O.3   378  TYR378     -0.2866
    229  N        -10.6590    6.3650   18.1760 N.3   380  TYR380     -0.1227
    230  CA        -9.7190    6.3680   19.3200 C.3   380  TYR380      0.1736
    231  C         -8.2700    6.1680   18.8670 C.2   380  TYR380      0.2595
    232  O         -7.4100    7.0090   19.1030 O.2   380  TYR380     -0.2718
    233  CB       -10.0810    5.3010   20.3710 C.3   380  TYR380      0.0548
    234  CG        -8.9300    5.0050   21.3120 C.ar  380  TYR380     -0.0200
    235  CD1       -8.5360    5.9240   22.2830 C.ar  380  TYR380     -0.0009
    236  CD2       -8.1960    3.8230   21.1850 C.ar  380  TYR380     -0.0009
    237  CE1       -7.4760    5.6560   23.1260 C.ar  380  TYR380      0.0417
    238  CE2       -7.1290    3.5530   22.0010 C.ar  380  TYR380      0.0417
    239  CZ        -6.7680    4.4710   22.9830 C.ar  380  TYR380      0.1957
    240  OH        -5.6920    4.2090   23.7990 O.3   380  TYR380     -0.2866
    241  N         -8.0000    5.0380   18.2270 N.am  381  TYR381     -0.1962
    242  CA        -6.6290    4.7040   17.8600 C.3   381  TYR381      0.1771
    243  C         -6.1560    5.5830   16.7020 C.2   381  TYR381      0.2619
    244  O         -5.0710    6.1640   16.7650 O.2   381  TYR381     -0.2715
    245  CB        -6.5070    3.2220   17.5080 C.3   381  TYR381      0.0574
    246  CG        -5.0790    2.6680   17.5900 C.ar  381  TYR381     -0.0198
    247  CD1       -4.3190    2.7910   18.7510 C.ar  381  TYR381     -0.0009
    248  CD2       -4.5120    2.0110   16.5070 C.ar  381  TYR381     -0.0009
    249  CE1       -3.0250    2.2650   18.8200 C.ar  381  TYR381      0.0417
    250  CE2       -3.2380    1.5090   16.5520 C.ar  381  TYR381      0.0417
    251  CZ        -2.4940    1.6310   17.7000 C.ar  381  TYR381      0.1957
    252  OH        -1.2340    1.1010   17.7400 O.3   381  TYR381     -0.2866
    253  N         -6.9850    5.6920   15.6690 N.am  382  ASN382     -0.1972
    254  CA        -6.6870    6.5310   14.5160 C.3   382  ASN382      0.1688
    255  C         -6.4900    7.9930   14.8990 C.2   382  ASN382      0.2292
    256  O         -5.5400    8.6550   14.4480 O.2   382  ASN382     -0.2864
    257  CB        -7.8080    6.4090   13.4760 C.3   382  ASN382      0.1181
    258  CG        -7.8510    5.0320   12.7870 C.2   382  ASN382      0.2629
    259  OD1       -8.9340    4.4870   12.5320 O.2   382  ASN382     -0.2716
    260  ND2       -6.6980    4.4960   12.4480 N.am  382  ASN382     -0.0877
@<TRIPOS>BOND
     1   208   209    1
     2   209   210    1
     3   209   212    1
     4   213   212    1
     5   213   214    1
     6   210   211    2
     7   216   214   am
     8   214   215    2
     9   191   189   ar
    10   191   192   ar
    11   189   188   ar
    12   194   192   ar
    13   194   196   ar
    14   192   190   ar
    15   196   195   ar
    16   188   190   ar
    17   188   187    1
    18   190   193   ar
    19   260   258   am
    20   259   258    2
    21   186   185    2
    22   184   187    1
    23   184   185    1
    24   184   183    1
    25   258   257    1
    26   226   224   ar
    27   226   227   ar
    28   224   222   ar
    29   195   193   ar
    30   172   174   ar
    31   172   170   ar
    32   185   197   am
    33   257   254    1
    34   174   173   ar
    35   227   228    1
    36   227   225   ar
    37   222   221    1
    38   222   223   ar
    39   221   218    1
    40   170   169   ar
    41   256   255    2
    42   164   165    1
    43   173   171   ar
    44   254   255    1
    45   254   253    1
    46   197   198    1
    47   225   223   ar
    48   169   171   ar
    49   169   168    1
    50   165   168    1
    51   165   166    1
    52   217   218    1
    53   220   219    2
    54   218   219    1
    55   199   198    1
    56   199   200    2
    57   198   201    1
    58   253   243   am
    59   116   117    1
    60   167   166    2
    61   166   175   am
    62     8     6   ar
    63   248   250   ar
    64   248   246   ar
    65     7     6   ar
    66   250   251   ar
    67   177   178    2
    68   177   176    1
    69   243   244    2
    70   243   242    1
    71   201   202    1
    72   175   176    1
    73   202   203    1
    74   120   117    1
    75   120   121    1
    76   117   118    1
    77     6     5    1
    78   245   246    1
    79   245   242    1
    80   176   179    1
    81   246   247   ar
    82   251   252    1
    83   251   249   ar
    84   242   241    1
    85   203   204    1
    86   229   230    1
    87   118   119    2
    88   241   231   am
    89   121   123   ar
    90   121   122   ar
    91   179   180    1
    92   123   125   ar
    93     5     2    1
    94   162   161    2
    95   204   205    2
    96   247   249   ar
    97   231   232    2
    98   231   230    1
    99     1     2    1
   100   122   124   ar
   101     2     3    1
   102   161   160    1
   103   230   233    1
   104   125   126   ar
   105   180   181   ar
   106   180   182   ar
   107   205   207    1
   108   205   206    1
   109   157   156    2
   110   233   234    1
   111   124   126   ar
   112   160   163    1
   113   160   159    1
   114     3     4    2
   115   156   155    1
   116   156   158   am
   117   236   234   ar
   118   236   238   ar
   119   234   235   ar
   120   153   152    2
   121   104   105    1
   122   155   154    1
   123   159   152   am
   124   238   239   ar
   125   152   151    1
   126   235   237   ar
   127   154   151    1
   128   105   106    1
   129   105   108    1
   130   106   107    2
   131   239   237   ar
   132   239   240    1
   133    27    26   ar
   134   151   150    1
   135   110   112   ar
   136   110   109   ar
   137    18    17    1
   138   112   114   ar
   139   108   109    1
   140   109   111   ar
   141   150   148   am
   142    17    19    1
   143    17    16    2
   144    26    28   ar
   145    26    25    1
   146   127   128    1
   147    75    73   ar
   148    75    77   ar
   149   114   115    1
   150   114   113   ar
   151   136   137   ar
   152   136   134   ar
   153   130   129    2
   154   149   148    2
   155    73    72   ar
   156   148   147    1
   157    16    15    1
   158   137   135   ar
   159    15    14    1
   160   134   132   ar
   161    77    76   ar
   162   111   113   ar
   163    24    25    1
   164    24    21    1
   165    23    22    2
   166   129   128    1
   167   129   138   am
   168   128   131    1
   169    72    71    1
   170    72    74   ar
   171    22    21    1
   172   135   133   ar
   173   132   133   ar
   174   132   131    1
   175    71    68    1
   176   147   146    1
   177   146   140   am
   178    76    74   ar
   179    21    20    1
   180   145   143   am
   181    42    41   ar
   182    42    40   ar
   183    41    39   ar
   184    14    13    1
   185   138   139    1
   186   139   140    1
   187   139   142    1
   188    13    10    1
   189   140   141    2
   190    68    67    1
   191    68    69    1
   192    40    38   ar
   193    39    36   ar
   194   143   142    1
   195   143   144    2
   196    66    63    1
   197   102   100    1
   198    10     9    1
   199    10    11    1
   200    69    70    2
   201    69    78   am
   202   103   101    1
   203    12    11    2
   204    38    36   ar
   205    38    37   ar
   206    36    34   ar
   207    65    64    2
   208    63    64    1
   209    63    62    1
   210    78    79    1
   211   100   101    1
   212   100    97    1
   213    37    35   ar
   214    32    31    2
   215    34    33    1
   216    34    35   ar
   217    82    79    1
   218    82    83    1
   219    33    30    1
   220    99    98    2
   221    98    97    1
   222    62    57   am
   223    79    80    1
   224    97    96    1
   225    31    30    1
   226    58    57    2
   227    57    56    1
   228    30    29    1
   229    50    48   ar
   230    81    80    2
   231    96    86   am
   232    47    48    1
   233    47    44    1
   234    48    49   ar
   235    86    87    2
   236    86    85    1
   237    56    59    1
   238    56    55    1
   239    54    53    2
   240    59    60    1
   241    55    53   am
   242    55    61    1
   243    84    85    1
   244    53    52    1
   245    43    44    1
   246    85    88    1
   247    60    61    1
   248    44    45    1
   249    88    89    1
   250    46    45    2
   251    52    51    1
   252    91    89   ar
   253    91    93   ar
   254    89    90   ar
   255    93    94   ar
   256    90    92   ar
   257    94    92   ar
   258    94    95    1
