@<TRIPOS>MOLECULE
tmp/2b4fA01.pdb
 116 114 0 0 0
SMALL
GASTEIGER

@<TRIPOS>ATOM
      1  N          9.7000   -9.7160    4.9280 N.3   249  TRP249     -0.1227
      2  CA         9.5420   -8.7300    3.8590 C.3   249  TRP249      0.1737
      3  C          9.4170   -7.2760    4.3550 C.2   249  TRP249      0.2595
      4  O          8.5550   -6.5150    3.9130 O.2   249  TRP249     -0.2718
      5  CB         8.3770   -9.1420    2.9550 C.3   249  TRP249      0.0564
      6  CG         8.7670  -10.3360    2.1580 C.ar  249  TRP249      0.0003
      7  CD1        8.3180  -11.6090    2.3140 C.ar  249  TRP249      0.0946
      8  CD2        9.7550  -10.3820    1.1140 C.ar  249  TRP249      0.0152
      9  NE1        8.9460  -12.4450    1.4170 N.ar  249  TRP249     -0.2442
     10  CE2        9.8380  -11.7210    0.6720 C.ar  249  TRP249      0.0810
     11  CE3       10.5640   -9.4250    0.4990 C.ar  249  TRP249      0.0012
     12  CZ2       10.6980  -12.1290   -0.3710 C.ar  249  TRP249      0.0191
     13  CZ3       11.4440   -9.8360   -0.5340 C.ar  249  TRP249      0.0001
     14  CH2       11.4880  -11.1750   -0.9570 C.ar  249  TRP249      0.0015
     15  N         10.3110   -6.9320    5.2770 N.am  250  ASN250     -0.1974
     16  CA        10.6770   -5.5670    5.6100 C.3   250  ASN250      0.1688
     17  C          9.6990   -4.7960    6.5020 C.2   250  ASN250      0.2292
     18  O          9.8470   -3.6040    6.6730 O.2   250  ASN250     -0.2864
     19  CB        11.0090   -4.8130    4.3170 C.3   250  ASN250      0.1181
     20  CG        11.9850   -5.6010    3.4530 C.2   250  ASN250      0.2629
     21  OD1       13.0840   -5.8950    3.9040 O.2   250  ASN250     -0.2716
     22  ND2       11.5650   -5.9990    2.2460 N.am  250  ASN250     -0.0877
     23  N         13.0930    3.1580    4.8340 N.3   307  ASN307     -0.1225
     24  CA        13.0980    3.0830    3.3590 C.3   307  ASN307      0.1785
     25  C         12.5480    1.7410    2.8840 C.2   307  ASN307      0.2597
     26  O         11.7420    1.6780    1.9670 O.2   307  ASN307     -0.2718
     27  CB        14.5060    3.3240    2.7800 C.3   307  ASN307      0.1169
     28  CG        14.9560    4.7720    2.8680 C.2   307  ASN307      0.2627
     29  OD1       14.1480    5.6900    2.9410 O.2   307  ASN307     -0.2716
     30  ND2       16.2740    4.9850    2.8170 N.am  307  ASN307     -0.0877
     31  N         12.9700    0.6620    3.5270 N.am  308  LYS308     -0.1980
     32  CA        12.5180   -0.6610    3.1450 C.3   308  LYS308      0.1596
     33  C         11.0840   -0.9300    3.5610 C.2   308  LYS308      0.2287
     34  O         10.3640   -1.5970    2.8430 O.2   308  LYS308     -0.2864
     35  CB        13.4470   -1.7440    3.7030 C.3   308  LYS308      0.0298
     36  CG        14.8450   -1.7020    3.0540 C.3   308  LYS308      0.0038
     37  CD        15.9520   -2.3130    3.9140 C.3   308  LYS308      0.0206
     38  CE        15.8320   -3.8020    4.1630 C.3   308  LYS308      0.1093
     39  NZ        15.6270   -4.6560    2.9360 N.3   308  LYS308     -0.1314
     40  N          8.8260    1.1380    1.4540 N.3   311  GLY311     -0.1210
     41  CA         9.0010    0.5210    0.1530 C.3   311  GLY311      0.1956
     42  C          8.1130   -0.6820   -0.0280 C.2   311  GLY311      0.2611
     43  O          7.5110   -0.8500   -1.0930 O.2   311  GLY311     -0.2717
     44  N          8.0240   -1.5320    1.0000 N.am  312  PHE312     -0.1976
     45  CA         7.1110   -2.6560    0.9320 C.3   312  PHE312      0.1639
     46  C          5.6530   -2.1990    0.8340 C.2   312  PHE312      0.2290
     47  O          4.8860   -2.7640    0.0760 O.2   312  PHE312     -0.2864
     48  CB         7.2410   -3.6100    2.1260 C.3   312  PHE312      0.0560
     49  CG         6.1680   -4.6500    2.1320 C.ar  312  PHE312     -0.0200
     50  CD1        6.3120   -5.8200    1.3880 C.ar  312  PHE312     -0.0042
     51  CD2        4.9680   -4.4150    2.7960 C.ar  312  PHE312     -0.0042
     52  CE1        5.2730   -6.7520    1.3350 C.ar  312  PHE312     -0.0003
     53  CE2        3.9350   -5.3320    2.7560 C.ar  312  PHE312     -0.0003
     54  CZ         4.0850   -6.5040    2.0290 C.ar  312  PHE312     -0.0000
     55  N          4.4150    0.6190   -0.3370 N.3   314  SER314     -0.1202
     56  CA         4.1950    1.1780   -1.6710 C.3   314  SER314      0.2020
     57  C          3.9840    0.0520   -2.6890 C.2   314  SER314      0.2618
     58  O          3.0610    0.1050   -3.5020 O.2   314  SER314     -0.2717
     59  CB         5.3820    2.0500   -2.0880 C.3   314  SER314      0.2103
     60  OG         5.1070    2.7680   -3.2770 O.3   314  SER314     -0.2182
     61  N          4.8390   -0.9680   -2.6320 N.am  315  TYR315     -0.1975
     62  CA         4.7310   -2.1460   -3.4880 C.3   315  TYR315      0.1639
     63  C          3.3880   -2.8670   -3.2790 C.2   315  TYR315      0.2290
     64  O          2.7100   -3.2590   -4.2440 O.2   315  TYR315     -0.2864
     65  CB         5.8950   -3.1250   -3.2060 C.3   315  TYR315      0.0560
     66  CG         5.6730   -4.5210   -3.7540 C.ar  315  TYR315     -0.0198
     67  CD1        6.0120   -4.8280   -5.0610 C.ar  315  TYR315     -0.0009
     68  CD2        5.0860   -5.5190   -2.9770 C.ar  315  TYR315     -0.0009
     69  CE1        5.8040   -6.0910   -5.5770 C.ar  315  TYR315      0.0417
     70  CE2        4.8730   -6.7970   -3.4920 C.ar  315  TYR315      0.0417
     71  CZ         5.2240   -7.0650   -4.7960 C.ar  315  TYR315      0.1957
     72  OH         5.0270   -8.3180   -5.3360 O.3   315  TYR315     -0.2866
     73  N          4.2360  -12.2880    7.0800 N.3   331  TYR331     -0.1227
     74  CA         5.2170  -12.8320    6.1530 C.3   331  TYR331      0.1736
     75  C          5.0860  -12.2100    4.7400 C.2   331  TYR331      0.2596
     76  O          5.2400  -12.9060    3.7200 O.2   331  TYR331     -0.2718
     77  CB         5.0640  -14.3570    6.0730 C.3   331  TYR331      0.0548
     78  CG         5.4280  -15.1470    7.2950 C.ar  331  TYR331     -0.0200
     79  CD1        6.7060  -15.0690    7.8390 C.ar  331  TYR331     -0.0009
     80  CD2        4.5120  -16.0470    7.8740 C.ar  331  TYR331     -0.0009
     81  CE1        7.0550  -15.8220    8.9310 C.ar  331  TYR331      0.0417
     82  CE2        4.8580  -16.8030    8.9810 C.ar  331  TYR331      0.0417
     83  CZ         6.1370  -16.6890    9.4900 C.ar  331  TYR331      0.1957
     84  OH         6.5200  -17.4400   10.5520 O.3   331  TYR331     -0.2866
     85  N          4.8000  -10.9070    4.6890 N.am  332  GLY332     -0.1942
     86  CA         4.5590  -10.2010    3.4330 C.3   332  GLY332      0.2014
     87  C          3.1970  -10.3710    2.7580 C.2   332  GLY332      0.2639
     88  O          2.9450   -9.7850    1.7020 O.2   332  GLY332     -0.2714
     89  N          2.3070  -11.1480    3.3630 N.am  333  GLY333     -0.1954
     90  CA         1.0060  -11.4130    2.7910 C.3   333  GLY333      0.1869
     91  C         -0.1220  -10.6890    3.5130 C.2   333  GLY333      0.2309
     92  O         -0.2100  -10.7220    4.7380 O.2   333  GLY333     -0.2863
     93  N         15.1230    8.7770    3.1300 N.3   356  THR356     -0.1203
     94  CA        16.0030    9.4860    2.1870 C.3   356  THR356      0.1994
     95  C         15.4310    9.4700    0.7770 C.2   356  THR356      0.2617
     96  O         16.1560    9.7150   -0.1960 O.2   356  THR356     -0.2717
     97  CB        17.4320    8.8840    2.1850 C.3   356  THR356      0.1784
     98  OG1       17.3940    7.5040    1.8020 O.3   356  THR356     -0.2211
     99  CG2       18.0190    8.8730    3.5760 C.3   356  THR356      0.0376
    100  N         14.1390    9.1770    0.6620 N.am  357  ASN357     -0.1974
    101  CA        13.4880    9.0740   -0.6240 C.3   357  ASN357      0.1688
    102  C         12.3680   10.0840   -0.8040 C.2   357  ASN357      0.2292
    103  O         11.2840    9.9230   -0.2500 O.2   357  ASN357     -0.2864
    104  CB        12.9470    7.6670   -0.8440 C.3   357  ASN357      0.1181
    105  CG        12.6260    7.4060   -2.3030 C.2   357  ASN357      0.2629
    106  OD1       11.6290    7.9040   -2.8320 O.2   357  ASN357     -0.2716
    107  ND2       13.4980    6.6570   -2.9790 N.am  357  ASN357     -0.0877
    108  N          8.9800    8.7020   -1.7450 N.3   360  GLN360     -0.1245
    109  CA         8.2460    8.1440   -0.5960 C.3   360  GLN360      0.1566
    110  C          7.6330    9.2870    0.2090 C.2   360  GLN360      0.2260
    111  O          6.4980    9.2050    0.6650 O.2   360  GLN360     -0.2867
    112  CB         9.1750    7.3090    0.3150 C.3   360  GLN360      0.0367
    113  CG         9.4910    5.9050   -0.2300 C.3   360  GLN360      0.0905
    114  CD        10.4870    5.0990    0.6250 C.2   360  GLN360      0.2608
    115  OE1       10.6780    3.9210    0.3650 O.2   360  GLN360     -0.2717
    116  NE2       11.1230    5.7370    1.6200 N.am  360  GLN360     -0.0878
@<TRIPOS>BOND
     1    69    67   ar
     2    69    71   ar
     3    72    71    1
     4    67    66   ar
     5    71    70   ar
     6    64    63    2
     7    66    65    1
     8    66    68   ar
     9    58    57    2
    10    70    68   ar
    11    62    63    1
    12    62    65    1
    13    62    61    1
    14    60    59    1
    15   107   105   am
    16   106   105    2
    17    57    61   am
    18    57    56    1
    19   105   104    1
    20    59    56    1
    21   108   109    1
    22    56    55    1
    23    43    42    2
    24    14    13   ar
    25    14    12   ar
    26   104   101    1
    27   102   101    1
    28   102   103    2
    29   101   100    1
    30   109   110    1
    31   109   112    1
    32    13    11   ar
    33    12    10   ar
    34   113   112    1
    35   113   114    1
    36    96    95    2
    37    42    41    1
    38    42    44   am
    39    47    46    2
    40    41    40    1
    41   110   111    2
    42   115   114    2
    43    11     8   ar
    44   114   116   am
    45   100    95   am
    46    10     8   ar
    47    10     9   ar
    48    95    94    1
    49    46    45    1
    50    45    44    1
    51    45    48    1
    52     8     6   ar
    53    52    50   ar
    54    52    54   ar
    55    50    49   ar
    56     9     7   ar
    57    88    87    2
    58    98    97    1
    59    26    25    2
    60    54    53   ar
    61    48    49    1
    62    49    51   ar
    63     6     7   ar
    64     6     5    1
    65    97    94    1
    66    97    99    1
    67    94    93    1
    68    22    20   am
    69    53    51   ar
    70    87    89   am
    71    87    86    1
    72    27    28    1
    73    27    24    1
    74    90    89    1
    75    90    91    1
    76    30    28   am
    77    34    33    2
    78    28    29    2
    79    25    24    1
    80    25    31   am
    81    39    38    1
    82     5     2    1
    83    36    35    1
    84    36    37    1
    85    32    31    1
    86    32    33    1
    87    32    35    1
    88    24    23    1
    89    86    85    1
    90    20    21    2
    91    20    19    1
    92    91    92    2
    93    76    75    2
    94     2     3    1
    95     2     1    1
    96     4     3    2
    97    37    38    1
    98    19    16    1
    99     3    15   am
   100    85    75   am
   101    75    74    1
   102    15    16    1
   103    16    17    1
   104    77    74    1
   105    77    78    1
   106    74    73    1
   107    17    18    2
   108    78    79   ar
   109    78    80   ar
   110    79    81   ar
   111    80    82   ar
   112    81    83   ar
   113    82    83   ar
   114    83    84    1
