@<TRIPOS>MOLECULE
tmp/2b4gB01.pdb
 100 93 0 0 0
SMALL
GASTEIGER

@<TRIPOS>ATOM
      1  N         70.1960   27.3950   20.9510 N.3    20  ALA20      -0.1245
      2  CA        70.7830   26.1340   20.4860 C.3    20  ALA20       0.1562
      3  C         70.2380   25.7940   19.1130 C.2    20  ALA20       0.2260
      4  O         69.0380   25.9460   18.8450 O.2    20  ALA20      -0.2867
      5  CB        70.5270   24.9800   21.4780 C.3    20  ALA20       0.0290
      6  N         75.2430   23.4830   19.1850 N.3    44  LYS44      -0.1231
      7  CA        74.1640   22.6510   18.6780 C.3    44  LYS44       0.1693
      8  C         73.9610   21.4460   19.5680 C.2    44  LYS44       0.2592
      9  O         74.9160   20.8060   19.9940 O.2    44  LYS44      -0.2718
     10  CB        74.4850   22.2200   17.2310 C.3    44  LYS44       0.0285
     11  CG        73.5960   21.1500   16.6220 C.3    44  LYS44       0.0035
     12  CD        72.1750   21.6470   16.4030 C.3    44  LYS44       0.0206
     13  CE        71.2370   20.5340   16.0190 C.3    44  LYS44       0.1093
     14  NZ        69.9120   21.0350   15.5380 N.3    44  LYS44      -0.1314
     15  N         72.6960   21.1590   19.8640 N.am   45  SER45      -0.1952
     16  CA        72.3260   19.9200   20.5070 C.3    45  SER45       0.1924
     17  C         73.0370   18.7520   19.8240 C.2    45  SER45       0.2314
     18  O         72.7490   18.4140   18.6650 O.2    45  SER45      -0.2863
     19  CB        70.8190   19.7220   20.4370 C.3    45  SER45       0.2116
     20  OG        70.2030   20.5330   21.4240 O.3    45  SER45      -0.2180
     21  N         60.8940   24.3850   11.3930 N.3    68  ASN68      -0.1240
     22  CA        61.9890   23.4580   11.1300 C.3    68  ASN68       0.1653
     23  C         61.7460   22.0360   11.6120 C.2    68  ASN68       0.2266
     24  O         61.0500   21.7870   12.6010 O.2    68  ASN68      -0.2867
     25  CB        63.2880   23.9840   11.7260 C.3    68  ASN68       0.1155
     26  CG        63.5170   23.5090   13.1520 C.2    68  ASN68       0.2627
     27  OD1       64.0090   22.4040   13.3670 O.2    68  ASN68      -0.2716
     28  ND2       63.1510   24.3340   14.1290 N.am   68  ASN68      -0.0877
     29  N         64.8940   19.9130   11.5730 N.3    70  MET70      -0.1230
     30  CA        66.2900   19.5890   11.2540 C.3    70  MET70       0.1702
     31  C         66.5990   18.1080   11.5770 C.2    70  MET70       0.2593
     32  O         67.2260   17.4100   10.7740 O.2    70  MET70      -0.2718
     33  CB        67.2720   20.5090   11.9770 C.3    70  MET70       0.0401
     34  CG        67.0180   21.9980   11.8510 C.3    70  MET70       0.0596
     35  SD        66.8610   22.6170   10.1680 S.3    70  MET70      -0.1393
     36  CE        68.5840   22.9260    9.7790 C.3    70  MET70       0.0692
     37  N         66.1450   17.6280   12.7380 N.am   71  GLY71      -0.1942
     38  CA        66.3790   16.2340   13.1400 C.3    71  GLY71       0.2014
     39  C         67.7550   16.0570   13.7530 C.2    71  GLY71       0.2638
     40  O         68.3660   15.0020   13.6060 O.2    71  GLY71      -0.2714
     41  N         68.2260   17.1020   14.4440 N.am   72  LEU72      -0.1977
     42  CA        69.4570   17.1050   15.2430 C.3    72  LEU72       0.1596
     43  C         70.7380   16.8470   14.4420 C.2    72  LEU72       0.2287
     44  O         71.5910   16.0630   14.8530 O.2    72  LEU72      -0.2864
     45  CB        69.3450   16.1300   16.4100 C.3    72  LEU72       0.0297
     46  CG        68.3890   16.5210   17.5360 C.3    72  LEU72       0.0022
     47  CD1       68.2740   15.3620   18.5090 C.3    72  LEU72       0.0001
     48  CD2       68.8330   17.7870   18.2440 C.3    72  LEU72       0.0001
     49  N         68.8420   19.2560   26.6450 N.3   128  ASN128     -0.1240
     50  CA        67.6680   19.4070   25.8030 C.3   128  ASN128      0.1653
     51  C         66.6370   18.3160   26.0370 C.2   128  ASN128      0.2266
     52  O         66.8370   17.1690   25.6180 O.2   128  ASN128     -0.2867
     53  CB        68.0970   19.3880   24.3410 C.3   128  ASN128      0.1155
     54  CG        66.9580   19.6840   23.3950 C.2   128  ASN128      0.2627
     55  OD1       65.8070   19.8960   23.8140 O.2   128  ASN128     -0.2716
     56  ND2       67.2810   19.7440   22.1060 N.am  128  ASN128     -0.0877
     57  N         63.3000   18.4880   22.1220 N.3   131  CYS131     -0.1221
     58  CA        63.3170   18.2980   20.6700 C.3   131  CYS131      0.1794
     59  C         61.9730   17.7260   20.1660 C.2   131  CYS131      0.2443
     60  O         61.5110   16.6710   20.6430 O.2   131  CYS131     -0.2733
     61  CB        64.4730   17.4030   20.2030 C.3   131  CYS131      0.0970
     62  SG        64.5380   17.2670   18.3800 S.3   131  CYS131     -0.0800
     63  N         61.2990   18.4600   19.2570 N.am  132  PRO132     -0.2718
     64  CA        60.0130   18.0150   18.6620 C.3   132  PRO132      0.1535
     65  C         60.0870   17.3350   17.2520 C.2   132  PRO132      0.2598
     66  O         59.0350   17.0440   16.6500 O.2   132  PRO132     -0.2715
     67  CB        59.2400   19.3400   18.5770 C.3   132  PRO132      0.0310
     68  CG        60.3000   20.3530   18.2240 C.3   132  PRO132      0.0237
     69  CD        61.6310   19.8350   18.8270 C.3   132  PRO132      0.0939
     70  N         61.3080   17.0510   16.7720 N.am  133  ASN133     -0.1973
     71  CA        61.5770   16.8440   15.3430 C.3   133  ASN133      0.1688
     72  C         62.2000   15.4960   14.9490 C.2   133  ASN133      0.2292
     73  O         62.4560   15.2460   13.7520 O.2   133  ASN133     -0.2864
     74  CB        62.4790   17.9790   14.8420 C.3   133  ASN133      0.1181
     75  CG        61.7590   19.3030   14.7690 C.2   133  ASN133      0.2629
     76  OD1       60.5350   19.3400   14.5910 O.2   133  ASN133     -0.2716
     77  ND2       62.5020   20.3960   14.8930 N.am  133  ASN133     -0.0877
     78  N         66.5650   22.6700   28.6850 N.3   165  LYS165     -0.1245
     79  CA        65.7460   23.2940   27.6540 C.3   165  LYS165      0.1561
     80  C         64.3620   22.6380   27.6800 C.2   165  LYS165      0.2260
     81  O         64.1910   21.4560   27.3260 O.2   165  LYS165     -0.2867
     82  CB        66.3990   23.1720   26.2690 C.3   165  LYS165      0.0271
     83  CG        65.6930   23.9280   25.1760 C.3   165  LYS165      0.0035
     84  CD        65.8900   25.4570   25.2660 C.3   165  LYS165      0.0206
     85  CE        65.5190   26.0920   23.9510 C.3   165  LYS165      0.1093
     86  NZ        66.4380   25.6840   22.8160 N.3   165  LYS165     -0.1314
     87  N         61.8240   25.9260   23.8760 N.3   195  ASN195     -0.1225
     88  CA        62.0750   25.3130   22.5580 C.3   195  ASN195      0.1785
     89  C         60.8920   25.6890   21.6400 C.2   195  ASN195      0.2597
     90  O         59.9180   26.3090   22.0750 O.2   195  ASN195     -0.2718
     91  CB        62.1910   23.7740   22.7260 C.3   195  ASN195      0.1169
     92  CG        63.1480   23.1160   21.7490 C.2   195  ASN195      0.2627
     93  OD1       63.0420   23.2840   20.5270 O.2   195  ASN195     -0.2716
     94  ND2       64.0590   22.3030   22.2830 N.am  195  ASN195     -0.0877
     95  N         60.9690   25.2990   20.3700 N.am  196  SER196     -0.1952
     96  CA        59.9170   25.6070   19.3770 C.3   196  SER196      0.1924
     97  C         58.5360   24.9950   19.7340 C.2   196  SER196      0.2314
     98  O         58.4470   23.9970   20.4450 O.2   196  SER196     -0.2863
     99  CB        60.3570   25.1110   17.9900 C.3   196  SER196      0.2116
    100  OG        60.6820   23.7280   18.0160 O.3   196  SER196     -0.2180
@<TRIPOS>BOND
     1    36    35    1
     2    35    34    1
     3    32    31    2
     4    22    21    1
     5    22    23    1
     6    22    25    1
     7    30    29    1
     8    30    31    1
     9    30    33    1
    10    31    37   am
    11    23    24    2
    12    25    26    1
    13    34    33    1
    14    37    38    1
    15    38    39    1
    16    26    27    2
    17    26    28   am
    18    40    39    2
    19    73    72    2
    20    39    41   am
    21    43    44    2
    22    43    42    1
    23    41    42    1
    24    76    75    2
    25    75    74    1
    26    75    77   am
    27    74    71    1
    28    72    71    1
    29    42    45    1
    30    71    70    1
    31    14    13    1
    32    13    12    1
    33    12    11    1
    34    45    46    1
    35    11    10    1
    36    66    65    2
    37    70    65   am
    38    10     7    1
    39    65    64    1
    40    46    48    1
    41    46    47    1
    42    99   100    1
    43    99    96    1
    44    68    67    1
    45    68    69    1
    46    62    61    1
    47    67    64    1
    48    64    63    1
    49    18    17    2
    50     7     6    1
    51     7     8    1
    52    69    63    1
    53     4     3    2
    54     3     2    1
    55    63    59   am
    56    96    97    1
    57    96    95    1
    58     8    15   am
    59     8     9    2
    60    97    98    2
    61    17    16    1
    62    15    16    1
    63    59    60    2
    64    59    58    1
    65    61    58    1
    66    95    89   am
    67    19    16    1
    68    19    20    1
    69     2     1    1
    70     2     5    1
    71    93    92    2
    72    58    57    1
    73    89    90    2
    74    89    88    1
    75    92    94   am
    76    92    91    1
    77    56    54   am
    78    88    91    1
    79    88    87    1
    80    86    85    1
    81    54    55    2
    82    54    53    1
    83    85    84    1
    84    53    50    1
    85    83    84    1
    86    83    82    1
    87    52    51    2
    88    50    51    1
    89    50    49    1
    90    82    79    1
    91    81    80    2
    92    79    80    1
    93    79    78    1
