@<TRIPOS>MOLECULE
tmp/2b4hB01.pdb
 127 120 0 0 0
SMALL
GASTEIGER

@<TRIPOS>ATOM
      1  N         16.4800   41.2290   14.8570 N.3     9  TYR9       -0.1241
      2  CA        17.1190   42.2840   15.6230 C.3     9  TYR9        0.1605
      3  C         18.1740   42.9380   14.7400 C.2     9  TYR9        0.2264
      4  O         19.1230   42.2730   14.3100 O.2     9  TYR9       -0.2867
      5  CB        17.7940   41.7060   16.8740 C.3     9  TYR9        0.0534
      6  CG        16.8560   40.9320   17.7760 C.ar    9  TYR9       -0.0201
      7  CD1       16.1560   41.5680   18.8020 C.ar    9  TYR9       -0.0009
      8  CD2       16.6360   39.5650   17.5740 C.ar    9  TYR9       -0.0009
      9  CE1       15.2550   40.8560   19.6120 C.ar    9  TYR9        0.0417
     10  CE2       15.7400   38.8470   18.3730 C.ar    9  TYR9        0.0417
     11  CZ        15.0500   39.5050   19.3950 C.ar    9  TYR9        0.1957
     12  OH        14.1560   38.8090   20.1970 O.3     9  TYR9       -0.2866
     13  N         21.0380   45.8310   14.5710 N.3    11  ARG11      -0.1231
     14  CA        21.8490   46.5920   15.5010 C.3    11  ARG11       0.1694
     15  C         23.1450   46.9970   14.8490 C.2    11  ARG11       0.2592
     16  O         23.6710   46.2850   13.9770 O.2    11  ARG11      -0.2718
     17  CB        22.2120   45.7400   16.7330 C.3    11  ARG11       0.0321
     18  CG        21.0840   45.3490   17.6720 C.3    11  ARG11       0.0489
     19  CD        20.5840   46.5320   18.4970 C.3    11  ARG11       0.2205
     20  NE        19.6020   46.1000   19.4880 N.pl3  11  ARG11      -0.0865
     21  CZ        18.3710   45.6920   19.1950 C.cat  11  ARG11       0.5346
     22  NH1       17.9550   45.6630   17.9360 N.pl3  11  ARG11       0.1354
     23  NH2       17.5530   45.3100   20.1710 N.pl3  11  ARG11       0.1354
     24  N         23.6690   48.1340   15.2820 N.am   12  ASP12      -0.1960
     25  CA        24.9630   48.5800   14.8000 C.3    12  ASP12       0.1840
     26  C         25.9320   47.7090   15.5910 C.2    12  ASP12       0.2621
     27  O         25.6050   47.2400   16.6860 O.2    12  ASP12      -0.2715
     28  CB        25.2500   50.0180   15.2010 C.3    12  ASP12       0.1450
     29  CG        24.5310   51.0320   14.3310 C.2    12  ASP12       0.3671
     30  OD1       24.2050   50.7220   13.1660 O.co2  12  ASP12      -0.2456
     31  OD2       24.3170   52.1600   14.8270 O.co2  12  ASP12      -0.2456
     32  N         27.1220   47.5160   15.0560 N.am   13  ILE13      -0.1977
     33  CA        28.1310   46.7500   15.7860 C.3    13  ILE13       0.1596
     34  C         29.4760   47.4770   15.6350 C.2    13  ILE13       0.2287
     35  O         29.7750   48.0620   14.5960 O.2    13  ILE13      -0.2864
     36  CB        28.2240   45.2620   15.2550 C.3    13  ILE13       0.0276
     37  CG1       29.2420   44.4560   16.0690 C.3    13  ILE13       0.0022
     38  CG2       28.6040   45.2390   13.7590 C.3    13  ILE13       0.0022
     39  CD1       29.2720   42.9520   15.6820 C.3    13  ILE13       0.0001
     40  N         25.3610   52.5510   21.6340 N.3    49  ARG49      -0.1245
     41  CA        24.5720   52.4800   20.4170 C.3    49  ARG49       0.1563
     42  C         23.1180   52.7080   20.8380 C.2    49  ARG49       0.2260
     43  O         22.5810   52.0200   21.7120 O.2    49  ARG49      -0.2867
     44  CB        24.7630   51.1480   19.6800 C.3    49  ARG49       0.0307
     45  CG        23.9750   50.0050   20.2150 C.3    49  ARG49       0.0489
     46  CD        24.2780   48.7170   19.4560 C.3    49  ARG49       0.2205
     47  NE        23.6350   47.6320   20.1760 N.pl3  49  ARG49      -0.0865
     48  CZ        23.9830   46.3560   20.1400 C.cat  49  ARG49       0.5346
     49  NH1       25.0020   45.9430   19.3830 N.pl3  49  ARG49       0.1354
     50  NH2       23.3310   45.5060   20.9140 N.pl3  49  ARG49       0.1354
     51  N         33.7280   37.4260   18.9190 N.3    97  TYR97      -0.1241
     52  CA        33.0490   38.5620   19.5500 C.3    97  TYR97       0.1605
     53  C         31.9110   38.1260   20.4370 C.2    97  TYR97       0.2264
     54  O         31.1260   37.2420   20.0990 O.2    97  TYR97      -0.2867
     55  CB        32.5390   39.4790   18.4150 C.3    97  TYR97       0.0534
     56  CG        31.6690   40.6330   18.8460 C.ar   97  TYR97      -0.0201
     57  CD1       32.2080   41.9090   18.9530 C.ar   97  TYR97      -0.0009
     58  CD2       30.3080   40.4330   19.1580 C.ar   97  TYR97      -0.0009
     59  CE1       31.4130   42.9930   19.3630 C.ar   97  TYR97       0.0417
     60  CE2       29.5090   41.5040   19.5840 C.ar   97  TYR97       0.0417
     61  CZ        30.0860   42.7700   19.6730 C.ar   97  TYR97       0.1957
     62  OH        29.3160   43.8360   20.0960 O.3    97  TYR97      -0.2866
     63  N         29.0940   40.1170   23.3880 N.3    99  ASP99      -0.1239
     64  CA        28.7580   41.3730   24.0850 C.3    99  ASP99       0.1674
     65  C         27.6340   41.1170   25.0830 C.2    99  ASP99       0.2266
     66  O         27.0300   40.0360   25.0980 O.2    99  ASP99      -0.2867
     67  CB        28.5010   42.5780   23.1590 C.3    99  ASP99       0.1410
     68  CG        27.1560   42.5530   22.4550 C.2    99  ASP99       0.3668
     69  OD1       26.1210   42.1740   23.0490 O.co2  99  ASP99      -0.2456
     70  OD2       27.1460   42.9550   21.2670 O.co2  99  ASP99      -0.2456
     71  N         24.8050   42.8040   25.5120 N.3   101  SER101     -0.1217
     72  CA        23.5620   43.4700   25.1590 C.3   101  SER101      0.1889
     73  C         22.3620   42.5620   25.2630 C.2   101  SER101      0.2288
     74  O         22.4750   41.3370   25.1540 O.2   101  SER101     -0.2866
     75  CB        23.6590   44.0860   23.7390 C.3   101  SER101      0.2089
     76  OG        23.5950   43.0950   22.7170 O.3   101  SER101     -0.2183
     77  N         19.9110   42.2230   23.1590 N.3   103  ALA103     -0.1231
     78  CA        19.6460   41.5210   21.8970 C.3   103  ALA103      0.1694
     79  C         20.4800   40.2380   21.7280 C.2   103  ALA103      0.2592
     80  O         19.9760   39.1960   21.2880 O.2   103  ALA103     -0.2718
     81  CB        19.8750   42.4780   20.7180 C.3   103  ALA103      0.0304
     82  N         21.7520   40.3070   22.1170 N.am  104  PHE104     -0.1976
     83  CA        22.6820   39.1850   22.0220 C.3   104  PHE104      0.1639
     84  C         22.1810   37.9920   22.8330 C.2   104  PHE104      0.2290
     85  O         22.4730   36.8430   22.5040 O.2   104  PHE104     -0.2864
     86  CB        24.0730   39.6510   22.5220 C.3   104  PHE104      0.0560
     87  CG        25.2240   38.7370   22.1650 C.ar  104  PHE104     -0.0200
     88  CD1       26.0830   39.0470   21.1090 C.ar  104  PHE104     -0.0042
     89  CD2       25.4870   37.6100   22.9130 C.ar  104  PHE104     -0.0042
     90  CE1       27.1990   38.2240   20.8130 C.ar  104  PHE104     -0.0003
     91  CE2       26.5990   36.7910   22.6250 C.ar  104  PHE104     -0.0003
     92  CZ        27.4480   37.1040   21.5750 C.ar  104  PHE104     -0.0000
     93  N         20.0910   35.4540   20.9600 N.3   107  MET107     -0.1245
     94  CA        20.7340   34.7490   19.8900 C.3   107  MET107      0.1570
     95  C         21.0590   33.3460   20.3700 C.2   107  MET107      0.2261
     96  O         22.2200   33.0230   20.6200 O.2   107  MET107     -0.2867
     97  CB        21.9860   35.5150   19.4870 C.3   107  MET107      0.0387
     98  CG        22.7470   34.8910   18.3850 C.3   107  MET107      0.0595
     99  SD        24.0590   35.9880   17.9260 S.3   107  MET107     -0.1393
    100  CE        25.1340   35.8150   19.3860 C.3   107  MET107      0.0692
    101  N         30.1940   35.0090   18.4710 N.3   166  LEU166     -0.1245
    102  CA        30.1750   35.1900   17.0100 C.3   166  LEU166      0.1561
    103  C         31.6140   35.1650   16.5400 C.2   166  LEU166      0.2260
    104  O         32.4870   35.6550   17.2250 O.2   166  LEU166     -0.2867
    105  CB        29.5940   36.5550   16.6320 C.3   166  LEU166      0.0270
    106  CG        28.0990   36.7180   16.8950 C.3   166  LEU166      0.0019
    107  CD1       27.7190   38.2040   16.6910 C.3   166  LEU166      0.0001
    108  CD2       27.3120   35.8210   15.9140 C.3   166  LEU166      0.0001
    109  N         24.6250   44.7680   11.8720 N.3   210  PHE210     -0.1241
    110  CA        24.4260   43.3440   12.0580 C.3   210  PHE210      0.1605
    111  C         22.9390   43.0220   12.0590 C.2   210  PHE210      0.2264
    112  O         22.1270   43.7790   12.6060 O.2   210  PHE210     -0.2867
    113  CB        25.0300   42.9260   13.4120 C.3   210  PHE210      0.0534
    114  CG        25.1620   41.4550   13.5850 C.ar  210  PHE210     -0.0203
    115  CD1       26.3400   40.8050   13.2010 C.ar  210  PHE210     -0.0042
    116  CD2       24.1340   40.7180   14.1200 C.ar  210  PHE210     -0.0042
    117  CE1       26.4740   39.4410   13.3510 C.ar  210  PHE210     -0.0003
    118  CE2       24.2570   39.3280   14.2760 C.ar  210  PHE210     -0.0003
    119  CZ        25.4300   38.6930   13.8900 C.ar  210  PHE210     -0.0000
    120  N         20.1710   39.9080   12.9790 N.3   212  LEU212     -0.1245
    121  CA        19.9240   38.6050   13.5900 C.3   212  LEU212      0.1561
    122  C         18.4490   38.1970   13.4870 C.2   212  LEU212      0.2260
    123  O         17.5670   38.9920   13.8260 O.2   212  LEU212     -0.2867
    124  CB        20.3100   38.6400   15.0850 C.3   212  LEU212      0.0270
    125  CG        19.7160   37.5230   15.9610 C.3   212  LEU212      0.0019
    126  CD1       20.4410   36.2290   15.6180 C.3   212  LEU212      0.0001
    127  CD2       19.8570   37.8260   17.4550 C.3   212  LEU212      0.0001
@<TRIPOS>BOND
     1   109   110    1
     2   110   111    1
     3   110   113    1
     4   111   112    2
     5   120   121    1
     6    30    29   ar
     7   115   117   ar
     8   115   114   ar
     9   117   119   ar
    10   113   114    1
    11   122   121    1
    12   122   123    2
    13   114   116   ar
    14   121   124    1
    15    38    36    1
    16   119   118   ar
    17    16    15    2
    18   116   118   ar
    19     4     3    2
    20    29    31   ar
    21    29    28    1
    22    13    14    1
    23    35    34    2
    24     3     2    1
    25    25    28    1
    26    25    24    1
    27    25    26    1
    28    15    24   am
    29    15    14    1
    30     1     2    1
    31    32    26   am
    32    32    33    1
    33   124   125    1
    34    36    33    1
    35    36    37    1
    36    14    17    1
    37    26    27    2
    38   126   125    1
    39     2     5    1
    40    34    33    1
    41    39    37    1
    42   108   106    1
    43   125   127    1
    44   103   102    1
    45   103   104    2
    46   105   106    1
    47   105   102    1
    48   107   106    1
    49    17    18    1
    50     5     6    1
    51   102   101    1
    52     8     6   ar
    53     8    10   ar
    54    18    19    1
    55     6     7   ar
    56    99    98    1
    57    99   100    1
    58    22    21    1
    59    10    11   ar
    60    98    97    1
    61    55    56    1
    62    55    52    1
    63    19    20    1
    64     7     9   ar
    65    56    57   ar
    66    56    58   ar
    67    51    52    1
    68    57    59   ar
    69    58    60   ar
    70    21    20    2
    71    21    23    1
    72    59    61   ar
    73    49    48    1
    74    11     9   ar
    75    11    12    1
    76    46    47    1
    77    46    45    1
    78    97    94    1
    79    52    53    1
    80    60    61   ar
    81    61    62    1
    82    44    45    1
    83    44    41    1
    84    94    95    1
    85    94    93    1
    86    54    53    2
    87    48    47    2
    88    48    50    1
    89    95    96    2
    90    41    42    1
    91    41    40    1
    92    81    78    1
    93    90    88   ar
    94    90    92   ar
    95    42    43    2
    96    88    87   ar
    97    70    68   ar
    98    80    79    2
    99    92    91   ar
   100    79    78    1
   101    79    82   am
   102    78    77    1
   103    83    82    1
   104    83    86    1
   105    83    84    1
   106    87    86    1
   107    87    89   ar
   108    68    69   ar
   109    68    67    1
   110    85    84    2
   111    91    89   ar
   112    76    75    1
   113    67    64    1
   114    63    64    1
   115    75    72    1
   116    64    65    1
   117    65    66    2
   118    74    73    2
   119    72    73    1
   120    72    71    1
