@<TRIPOS>MOLECULE
tmp/2b4hA00.pdb
 95 91 0 0 0
SMALL
GASTEIGER

@<TRIPOS>ATOM
      1  N         73.7800   20.8570   14.5730 N.3    40  TYR40      -0.1241
      2  CA        73.6080   20.2050   15.8750 C.3    40  TYR40       0.1605
      3  C         72.4570   20.8200   16.6560 C.2    40  TYR40       0.2264
      4  O         72.1260   20.3560   17.7490 O.2    40  TYR40      -0.2867
      5  CB        74.8750   20.3730   16.7510 C.3    40  TYR40       0.0534
      6  CG        76.0860   19.6280   16.2510 C.ar   40  TYR40      -0.0201
      7  CD1       76.8200   20.0950   15.1570 C.ar   40  TYR40      -0.0009
      8  CD2       76.5040   18.4630   16.8780 C.ar   40  TYR40      -0.0009
      9  CE1       77.9510   19.4060   14.7080 C.ar   40  TYR40       0.0417
     10  CE2       77.6480   17.7570   16.4280 C.ar   40  TYR40       0.0417
     11  CZ        78.3550   18.2470   15.3440 C.ar   40  TYR40       0.1957
     12  OH        79.5040   17.5950   14.8990 O.3    40  TYR40      -0.2866
     13  N         66.1850   22.5280   25.6020 N.3    79  PHE79      -0.1241
     14  CA        67.3300   21.7830   26.0520 C.3    79  PHE79       0.1605
     15  C         68.5580   22.5120   25.5330 C.2    79  PHE79       0.2264
     16  O         68.6850   22.7520   24.3330 O.2    79  PHE79      -0.2867
     17  CB        67.3560   20.3600   25.5350 C.3    79  PHE79       0.0534
     18  CG        68.6140   19.6690   25.8970 C.ar   79  PHE79      -0.0203
     19  CD1       68.8520   19.3180   27.2220 C.ar   79  PHE79      -0.0042
     20  CD2       69.6260   19.5190   24.9630 C.ar   79  PHE79      -0.0042
     21  CE1       70.0950   18.8340   27.6210 C.ar   79  PHE79      -0.0003
     22  CE2       70.8790   19.0360   25.3500 C.ar   79  PHE79      -0.0003
     23  CZ        71.1150   18.6960   26.6730 C.ar   79  PHE79      -0.0000
     24  N         72.4980   22.0910   25.3860 N.3    81  GLY81      -0.1225
     25  CA        73.6600   21.2390   25.5970 C.3    81  GLY81       0.1811
     26  C         74.9220   22.0750   25.6810 C.2    81  GLY81       0.2280
     27  O         75.9890   21.5400   26.0170 O.2    81  GLY81      -0.2866
     28  N         79.0220   22.6690   18.2060 N.3    86  THR86      -0.1203
     29  CA        78.9170   21.2170   18.2520 C.3    86  THR86       0.1994
     30  C         78.0760   20.6890   19.4190 C.2    86  THR86       0.2618
     31  O         77.9780   19.4780   19.6150 O.2    86  THR86      -0.2717
     32  CB        80.3390   20.5950   18.3270 C.3    86  THR86       0.1784
     33  OG1       81.1050   21.3170   19.2910 O.3    86  THR86      -0.2211
     34  CG2       81.0230   20.6890   16.9750 C.3    86  THR86       0.0376
     35  N         77.4930   21.5860   20.1970 N.am   87  ASP87      -0.1959
     36  CA        76.6530   21.1520   21.3140 C.3    87  ASP87       0.1840
     37  C         75.1770   21.0430   20.8810 C.2    87  ASP87       0.2622
     38  O         74.6460   21.9570   20.2480 O.2    87  ASP87      -0.2715
     39  CB        76.7360   22.1310   22.4760 C.3    87  ASP87       0.1450
     40  CG        78.0860   22.1180   23.1980 C.2    87  ASP87       0.3671
     41  OD1       78.7440   21.0520   23.2670 O.co2  87  ASP87      -0.2456
     42  OD2       78.4430   23.1880   23.7370 O.co2  87  ASP87      -0.2456
     43  N         74.5340   19.9390   21.2420 N.am   88  PHE88      -0.1974
     44  CA        73.1170   19.6670   20.9220 C.3    88  PHE88       0.1639
     45  C         72.2250   20.6430   21.6690 C.2    88  PHE88       0.2290
     46  O         72.4000   20.8720   22.8730 O.2    88  PHE88      -0.2864
     47  CB        72.7860   18.2230   21.3250 C.3    88  PHE88       0.0560
     48  CG        71.3390   17.8440   21.1560 C.ar   88  PHE88      -0.0200
     49  CD1       70.6750   18.0670   19.9570 C.ar   88  PHE88      -0.0042
     50  CD2       70.6490   17.2420   22.2110 C.ar   88  PHE88      -0.0042
     51  CE1       69.3260   17.6900   19.7970 C.ar   88  PHE88      -0.0003
     52  CE2       69.2970   16.8590   22.0670 C.ar   88  PHE88      -0.0003
     53  CZ        68.6350   17.0820   20.8590 C.ar   88  PHE88      -0.0000
     54  N         72.6980   14.0460   14.5100 N.3   140  LEU140     -0.1245
     55  CA        73.8180   14.9920   14.5760 C.3   140  LEU140      0.1561
     56  C         74.8140   14.6990   13.4350 C.2   140  LEU140      0.2260
     57  O         74.9270   13.5570   12.9960 O.2   140  LEU140     -0.2867
     58  CB        74.5610   14.8530   15.9050 C.3   140  LEU140      0.0270
     59  CG        73.7090   14.9850   17.1680 C.3   140  LEU140      0.0019
     60  CD1       74.6020   14.9130   18.3890 C.3   140  LEU140      0.0001
     61  CD2       72.9300   16.3240   17.1270 C.3   140  LEU140      0.0001
     62  N         76.9430   10.0590   18.4700 N.3   144  GLN144     -0.1245
     63  CA        75.7320    9.2760   18.6710 C.3   144  GLN144      0.1566
     64  C         74.5260   10.2110   18.7000 C.2   144  GLN144      0.2260
     65  O         74.6120   11.3310   19.1870 O.2   144  GLN144     -0.2867
     66  CB        75.7970    8.5060   19.9890 C.3   144  GLN144      0.0367
     67  CG        76.9250    7.4850   20.0490 C.3   144  GLN144      0.0905
     68  CD        76.7790    6.4180   18.9940 C.2   144  GLN144      0.2608
     69  OE1       75.7460    5.7470   18.9110 O.2   144  GLN144     -0.2717
     70  NE2       77.8120    6.2530   18.1720 N.am  144  GLN144     -0.0878
     71  N         71.0050   11.7520   19.9070 N.3   146  PRO146     -0.2116
     72  CA        70.1360   11.8130   21.0900 C.3   146  PRO146      0.1372
     73  C         68.7550   11.4000   20.5600 C.2   146  PRO146      0.2244
     74  O         68.4480   11.6410   19.3860 O.2   146  PRO146     -0.2868
     75  CB        70.1460   13.3000   21.4610 C.3   146  PRO146      0.0268
     76  CG        71.4370   13.8130   20.9130 C.3   146  PRO146      0.0207
     77  CD        71.5560   13.0820   19.5890 C.3   146  PRO146      0.0892
     78  N         71.0180   10.4310   26.0610 N.3   192  ARG192     -0.1231
     79  CA        72.2880   11.1350   25.9470 C.3   192  ARG192      0.1694
     80  C         72.2720   12.5420   26.5500 C.2   192  ARG192      0.2592
     81  O         73.1500   13.3550   26.2810 O.2   192  ARG192     -0.2718
     82  CB        72.7480   11.1530   24.4820 C.3   192  ARG192      0.0321
     83  CG        72.8080    9.7520   23.8890 C.3   192  ARG192      0.0489
     84  CD        73.3960    9.7200   22.4970 C.3   192  ARG192      0.2205
     85  NE        73.1550    8.4230   21.8630 N.pl3 192  ARG192     -0.0865
     86  CZ        73.7770    7.2880   22.1810 C.cat 192  ARG192      0.5346
     87  NH1       74.7040    7.2750   23.1340 N.pl3 192  ARG192      0.1354
     88  NH2       73.4580    6.1620   21.5520 N.pl3 192  ARG192      0.1354
     89  N         71.2600   12.8310   27.3680 N.am  193  THR193     -0.1953
     90  CA        71.1750   14.1270   28.0470 C.3   193  THR193      0.1897
     91  C         70.6810   13.8460   29.4640 C.2   193  THR193      0.2313
     92  O         70.3690   12.7190   29.7970 O.2   193  THR193     -0.2863
     93  CB        70.1420   15.0830   27.4180 C.3   193  THR193      0.1794
     94  OG1       68.8240   14.6370   27.7620 O.3   193  THR193     -0.2208
     95  CG2       70.2990   15.1340   25.9060 C.3   193  THR193      0.0378
@<TRIPOS>BOND
     1    57    56    2
     2    56    55    1
     3    54    55    1
     4     1     2    1
     5    55    58    1
     6     9     7   ar
     7     9    11   ar
     8    12    11    1
     9     7     6   ar
    10    11    10   ar
    11     2     3    1
    12     2     5    1
    13    58    59    1
    14     6     5    1
    15     6     8   ar
    16    10     8   ar
    17     3     4    2
    18    34    32    1
    19    61    59    1
    20    59    60    1
    21    70    68   am
    22    28    29    1
    23    29    32    1
    24    29    30    1
    25    32    33    1
    26    62    63    1
    27    63    64    1
    28    63    66    1
    29    64    65    2
    30    69    68    2
    31    68    67    1
    32    74    73    2
    33    30    31    2
    34    30    35   am
    35    77    71    1
    36    77    76    1
    37    51    49   ar
    38    51    53   ar
    39    71    72    1
    40    49    48   ar
    41    66    67    1
    42    35    36    1
    43    38    37    2
    44    73    72    1
    45    53    52   ar
    46    37    43   am
    47    37    36    1
    48    76    75    1
    49    44    43    1
    50    44    47    1
    51    44    45    1
    52    72    75    1
    53    48    47    1
    54    48    50   ar
    55    36    39    1
    56    88    86    1
    57    45    46    2
    58    85    86    2
    59    85    84    1
    60    52    50   ar
    61    86    87    1
    62    39    40    1
    63    84    83    1
    64    40    41   ar
    65    40    42   ar
    66    83    82    1
    67    16    15    2
    68    82    79    1
    69    20    22   ar
    70    20    18   ar
    71    22    23   ar
    72    24    25    1
    73    15    14    1
    74    17    18    1
    75    17    14    1
    76    25    26    1
    77    13    14    1
    78    26    27    2
    79    18    19   ar
    80    95    93    1
    81    79    78    1
    82    79    80    1
    83    81    80    2
    84    80    89   am
    85    23    21   ar
    86    19    21   ar
    87    89    90    1
    88    93    94    1
    89    93    90    1
    90    90    91    1
    91    91    92    2
