@<TRIPOS>MOLECULE
tmp/2b4kB00.pdb
 108 106 0 0 0
SMALL
GASTEIGER

@<TRIPOS>ATOM
      1  N         52.7790   57.5920  140.6680 N.3    63  TYR63      -0.1241
      2  CA        53.0750   58.1130  141.9960 C.3    63  TYR63       0.1605
      3  C         54.2580   57.4470  142.6750 C.2    63  TYR63       0.2264
      4  O         54.1380   56.9880  143.8100 O.2    63  TYR63      -0.2867
      5  CB        51.8410   58.0000  142.9010 C.3    63  TYR63       0.0534
      6  CG        50.6030   58.6640  142.3540 C.ar   63  TYR63      -0.0201
      7  CD1       50.5600   60.0360  142.1580 C.ar   63  TYR63      -0.0009
      8  CD2       49.4730   57.9190  142.0390 C.ar   63  TYR63      -0.0009
      9  CE1       49.4270   60.6520  141.6580 C.ar   63  TYR63       0.0417
     10  CE2       48.3340   58.5220  141.5420 C.ar   63  TYR63       0.0417
     11  CZ        48.3180   59.8930  141.3510 C.ar   63  TYR63       0.1957
     12  OH        47.1960   60.5090  140.8540 O.3    63  TYR63      -0.2866
     13  N         42.3040   55.0570  141.7050 N.3   156  SER156     -0.1202
     14  CA        42.4300   56.3860  141.0950 C.3   156  SER156      0.2020
     15  C         43.1570   56.2650  139.7850 C.2   156  SER156      0.2618
     16  O         42.7480   55.4970  138.9250 O.2   156  SER156     -0.2717
     17  CB        43.1580   57.3520  142.0190 C.3   156  SER156      0.2103
     18  OG        42.2770   58.3440  142.4980 O.3   156  SER156     -0.2182
     19  N         44.2390   57.0240  139.6330 N.am  157  TYR157     -0.1975
     20  CA        45.0620   56.9590  138.4300 C.3   157  TYR157      0.1639
     21  C         45.5920   55.5340  138.2790 C.2   157  TYR157      0.2290
     22  O         45.7270   55.0290  137.1730 O.2   157  TYR157     -0.2864
     23  CB        46.2190   57.9530  138.5350 C.3   157  TYR157      0.0560
     24  CG        46.8240   58.4150  137.2100 C.ar  157  TYR157     -0.0198
     25  CD1       46.8690   59.7620  136.8810 C.ar  157  TYR157     -0.0009
     26  CD2       47.3730   57.5100  136.3150 C.ar  157  TYR157     -0.0009
     27  CE1       47.4250   60.1920  135.6980 C.ar  157  TYR157      0.0417
     28  CE2       47.9320   57.9340  135.1260 C.ar  157  TYR157      0.0417
     29  CZ        47.9550   59.2770  134.8250 C.ar  157  TYR157      0.1957
     30  OH        48.5170   59.7040  133.6430 O.3   157  TYR157     -0.2866
     31  N         39.9980   56.3150  136.9200 N.3   182  MET182     -0.1245
     32  CA        39.7320   57.5410  136.2260 C.3   182  MET182      0.1570
     33  C         39.2610   57.1360  134.8420 C.2   182  MET182      0.2261
     34  O         40.0650   56.7950  133.9800 O.2   182  MET182     -0.2867
     35  CB        41.0050   58.3760  136.1370 C.3   182  MET182      0.0387
     36  CG        41.6390   58.6610  137.4780 C.3   182  MET182      0.0595
     37  SD        43.0810   59.7300  137.3850 S.3   182  MET182     -0.1393
     38  CE        42.4800   61.0280  136.3370 C.3   182  MET182      0.0692
     39  N         37.3920   63.1650  137.5850 N.3   190  ASP190     -0.1225
     40  CA        38.3360   64.0380  138.2650 C.3   190  ASP190      0.1805
     41  C         38.3080   65.5210  137.9210 C.2   190  ASP190      0.2597
     42  O         38.2530   66.3470  138.8150 O.2   190  ASP190     -0.2718
     43  CB        39.7540   63.4840  138.1390 C.3   190  ASP190      0.1424
     44  CG        40.1140   62.5590  139.2810 C.2   190  ASP190      0.3668
     45  OD1       39.9650   62.9730  140.4590 O.co2 190  ASP190     -0.2456
     46  OD2       40.5490   61.4020  139.1040 O.co2 190  ASP190     -0.2456
     47  N         38.3520   65.8600  136.6380 N.am  191  TRP191     -0.1976
     48  CA        38.3950   67.2710  136.2310 C.3   191  TRP191      0.1640
     49  C         37.0580   68.0010  136.2580 C.2   191  TRP191      0.2290
     50  O         36.9480   69.0780  136.8420 O.2   191  TRP191     -0.2864
     51  CB        39.0270   67.4200  134.8540 C.3   191  TRP191      0.0576
     52  CG        40.1100   66.4520  134.5730 C.ar  191  TRP191      0.0006
     53  CD1       40.1480   65.5500  133.5630 C.ar  191  TRP191      0.0946
     54  CD2       41.3300   66.2880  135.3030 C.ar  191  TRP191      0.0152
     55  NE1       41.3140   64.8270  133.6150 N.ar  191  TRP191     -0.2442
     56  CE2       42.0580   65.2620  134.6760 C.ar  191  TRP191      0.0810
     57  CE3       41.8850   66.9070  136.4300 C.ar  191  TRP191      0.0012
     58  CZ2       43.3040   64.8400  135.1320 C.ar  191  TRP191      0.0191
     59  CZ3       43.1240   66.4840  136.8830 C.ar  191  TRP191      0.0001
     60  CH2       43.8180   65.4620  136.2340 C.ar  191  TRP191      0.0015
     61  N         40.3680   71.9340  142.4600 N.3   200  GLY200     -0.1210
     62  CA        41.4160   71.2120  143.1500 C.3   200  GLY200      0.1956
     63  C         42.4090   70.5620  142.2060 C.2   200  GLY200      0.2611
     64  O         43.3820   69.9490  142.6490 O.2   200  GLY200     -0.2717
     65  N         42.1650   70.7050  140.9020 N.am  201  ALA201     -0.1979
     66  CA        43.0240   70.1200  139.8710 C.3   201  ALA201      0.1597
     67  C         44.3240   70.8870  139.6430 C.2   201  ALA201      0.2287
     68  O         45.3490   70.2890  139.3460 O.2   201  ALA201     -0.2864
     69  CB        42.2620   69.9770  138.5680 C.3   201  ALA201      0.0319
     70  N         47.1030   69.5270  141.5760 N.3   204  TYR204     -0.1241
     71  CA        47.4990   68.2380  141.0370 C.3   204  TYR204      0.1605
     72  C         48.3720   68.4250  139.8100 C.2   204  TYR204      0.2264
     73  O         49.3790   67.7370  139.6520 O.2   204  TYR204     -0.2867
     74  CB        46.2680   67.4000  140.6980 C.3   204  TYR204      0.0534
     75  CG        46.5820   66.0210  140.1780 C.ar  204  TYR204     -0.0201
     76  CD1       46.5960   65.7600  138.8190 C.ar  204  TYR204     -0.0009
     77  CD2       46.8520   64.9800  141.0440 C.ar  204  TYR204     -0.0009
     78  CE1       46.8800   64.5020  138.3360 C.ar  204  TYR204      0.0417
     79  CE2       47.1330   63.7170  140.5720 C.ar  204  TYR204      0.0417
     80  CZ        47.1470   63.4870  139.2130 C.ar  204  TYR204      0.1957
     81  OH        47.4320   62.2370  138.7300 O.3   204  TYR204     -0.2866
     82  N         36.4550   61.4530  144.5610 N.3   291  GLU291     -0.1231
     83  CA        37.3930   61.7320  143.4790 C.3   291  GLU291      0.1699
     84  C         37.0290   61.0820  142.1410 C.2   291  GLU291      0.2592
     85  O         37.2320   61.6760  141.0970 O.2   291  GLU291     -0.2718
     86  CB        38.8280   61.3870  143.8870 C.3   291  GLU291      0.0402
     87  CG        39.6280   62.5830  144.3920 C.3   291  GLU291      0.1161
     88  CD        40.8770   62.1880  145.1730 C.2   291  GLU291      0.3649
     89  OE1       41.0340   62.6600  146.3230 O.co2 291  GLU291     -0.2457
     90  OE2       41.7050   61.4170  144.6390 O.co2 291  GLU291     -0.2457
     91  N         36.5000   59.8640  142.1730 N.am  292  ASP292     -0.1974
     92  CA        36.1310   59.1790  140.9330 C.3   292  ASP292      0.1709
     93  C         34.8130   58.4380  141.0630 C.2   292  ASP292      0.2293
     94  O         34.7740   57.2050  141.1170 O.2   292  ASP292     -0.2864
     95  CB        37.2450   58.2520  140.4800 C.3   292  ASP292      0.1436
     96  CG        38.4360   59.0060  139.9720 C.2   292  ASP292      0.3671
     97  OD1       39.3770   59.2280  140.7540 O.co2 292  ASP292     -0.2456
     98  OD2       38.5160   59.4410  138.8110 O.co2 292  ASP292     -0.2456
     99  N         36.9540   57.9580  148.5590 N.3   321  HIS321     -0.1241
    100  CA        37.8320   57.6090  147.4520 C.3   321  HIS321      0.1621
    101  C         39.0350   56.8060  147.9340 C.2   321  HIS321      0.2264
    102  O         39.6960   57.1880  148.9020 O.2   321  HIS321     -0.2867
    103  CB        38.3060   58.8470  146.7320 C.3   321  HIS321      0.0745
    104  CG        39.1260   58.5510  145.5290 C.ar  321  HIS321      0.0817
    105  ND1       38.6480   57.8120  144.4700 N.ar  321  HIS321     -0.2268
    106  CD2       40.3980   58.8810  145.2150 C.ar  321  HIS321      0.1154
    107  CE1       39.5880   57.7080  143.5500 C.ar  321  HIS321      0.1986
    108  NE2       40.6590   58.3520  143.9760 N.ar  321  HIS321     -0.2212
@<TRIPOS>BOND
     1    53    55   ar
     2    53    52   ar
     3    55    56   ar
     4    30    29    1
     5    34    33    2
     6    52    51    1
     7    52    54   ar
     8    56    58   ar
     9    56    54   ar
    10    29    28   ar
    11    29    27   ar
    12    33    32    1
    13    51    48    1
    14    28    26   ar
    15    58    60   ar
    16    54    57   ar
    17    27    25   ar
    18    35    32    1
    19    35    36    1
    20    32    31    1
    21    48    49    1
    22    48    47    1
    23    60    59   ar
    24    49    50    2
    25    26    24   ar
    26    38    37    1
    27    57    59   ar
    28    47    41   am
    29    25    24   ar
    30    22    21    2
    31    24    23    1
    32    37    36    1
    33    39    40    1
    34    41    40    1
    35    41    42    2
    36    43    40    1
    37    43    44    1
    38    21    20    1
    39    78    76   ar
    40    78    80   ar
    41    20    23    1
    42    20    19    1
    43    69    66    1
    44    81    80    1
    45    98    96   ar
    46    76    75   ar
    47    16    15    2
    48    46    44   ar
    49    80    79   ar
    50    44    45   ar
    51    68    67    2
    52    19    15   am
    53    67    66    1
    54    73    72    2
    55    15    14    1
    56    72    71    1
    57    66    65    1
    58    96    95    1
    59    96    97   ar
    60    75    74    1
    61    75    77   ar
    62    95    92    1
    63    79    77   ar
    64     1     2    1
    65    74    71    1
    66    12    11    1
    67    65    63   am
    68    92    93    1
    69    92    91    1
    70    71    70    1
    71    93    94    2
    72    14    13    1
    73    14    17    1
    74    85    84    2
    75    11    10   ar
    76    11     9   ar
    77    10     8   ar
    78     9     7   ar
    79     2     3    1
    80     2     5    1
    81    17    18    1
    82     8     6   ar
    83    84    91   am
    84    84    83    1
    85     7     6   ar
    86    63    64    2
    87    63    62    1
    88     6     5    1
    89    61    62    1
    90     3     4    2
    91    83    86    1
    92    83    82    1
    93   107   108   ar
    94   107   105   ar
    95    86    87    1
    96   108   106   ar
    97    87    88    1
    98   105   104   ar
    99    90    88   ar
   100    88    89   ar
   101   106   104   ar
   102   104   103    1
   103   103   100    1
   104   100   101    1
   105   100    99    1
   106   101   102    2
