@<TRIPOS>MOLECULE
tmp/2b4lA00.pdb
 102 101 0 0 0
SMALL
GASTEIGER

@<TRIPOS>ATOM
      1  N         17.7300    7.1720   12.3400 N.3    17  ILE17      -0.1245
      2  CA        18.1270    8.2300   13.2480 C.3    17  ILE17       0.1561
      3  C         18.7360    7.6190   14.5190 C.2    17  ILE17       0.2260
      4  O         19.3550    6.5650   14.4540 O.2    17  ILE17      -0.2867
      5  CB        16.9420    9.2030   13.5250 C.3    17  ILE17       0.0252
      6  CG1       15.7730    8.5170   14.2450 C.3    17  ILE17       0.0019
      7  CG2       16.4380    9.8240   12.1990 C.3    17  ILE17       0.0019
      8  CD1       14.7030    9.5020   14.7440 C.3    17  ILE17       0.0001
      9  N         15.4490    5.7890   19.5550 N.3    21  SER21      -0.1202
     10  CA        14.1480    6.3050   19.1250 C.3    21  SER21       0.2020
     11  C         13.1900    5.1500   18.8460 C.2    21  SER21       0.2619
     12  O         13.6090    4.0390   18.4910 O.2    21  SER21      -0.2717
     13  CB        14.2800    7.1960   17.8900 C.3    21  SER21       0.2103
     14  OG        14.7120    6.4540   16.7500 O.3    21  SER21      -0.2182
     15  N         11.9050    5.4140   19.0340 N.am   22  GLY22      -0.1942
     16  CA        10.8780    4.4170   18.7500 C.3    22  GLY22       0.2014
     17  C         10.7360    4.0860   17.2720 C.2    22  GLY22       0.2638
     18  O         10.3880    2.9600   16.9150 O.2    22  GLY22      -0.2714
     19  N         10.9650    5.0680   16.4020 N.am   23  ILE23      -0.1977
     20  CA        10.8080    4.8180   14.9750 C.3    23  ILE23       0.1596
     21  C         11.7910    3.7380   14.5250 C.2    23  ILE23       0.2287
     22  O         11.4720    2.9150   13.6530 O.2    23  ILE23      -0.2864
     23  CB        10.9400    6.1080   14.1360 C.3    23  ILE23       0.0276
     24  CG1       10.4480    5.8520   12.7100 C.3    23  ILE23       0.0022
     25  CG2       12.3560    6.6400   14.1440 C.3    23  ILE23       0.0022
     26  CD1       10.3500    7.0530   11.8780 C.3    23  ILE23       0.0001
     27  N          9.1030   10.9240    9.7440 N.3    68  TRP68      -0.1241
     28  CA         7.9420   11.1950   10.5480 C.3    68  TRP68       0.1605
     29  C          7.3590   12.5380   10.1780 C.2    68  TRP68       0.2264
     30  O          8.0230   13.3860    9.5610 O.2    68  TRP68      -0.2867
     31  CB         8.2430   11.1240   12.0480 C.3    68  TRP68       0.0550
     32  CG         9.1380   12.2030   12.6250 C.ar   68  TRP68       0.0003
     33  CD1        8.7310   13.3330   13.2710 C.ar   68  TRP68       0.0946
     34  CD2       10.5760   12.2300   12.6460 C.ar   68  TRP68       0.0152
     35  NE1        9.8150   14.0660   13.6820 N.ar   68  TRP68      -0.2442
     36  CE2       10.9630   13.4190   13.3070 C.ar   68  TRP68       0.0810
     37  CE3       11.5750   11.3830   12.1540 C.ar   68  TRP68       0.0012
     38  CZ2       12.2970   13.7720   13.5000 C.ar   68  TRP68       0.0191
     39  CZ3       12.9080   11.7400   12.3380 C.ar   68  TRP68       0.0001
     40  CH2       13.2580   12.9200   13.0010 C.ar   68  TRP68       0.0015
     41  N         14.9330   15.7340   18.7550 N.3   174  TRP174     -0.1241
     42  CA        14.2500   15.6210   17.4600 C.3   174  TRP174      0.1605
     43  C         13.7700   17.0240   17.0970 C.2   174  TRP174      0.2264
     44  O         13.4350   17.8100   17.9790 O.2   174  TRP174     -0.2867
     45  CB        13.0750   14.6370   17.5310 C.3   174  TRP174      0.0550
     46  CG        13.4840   13.2610   17.9700 C.ar  174  TRP174      0.0003
     47  CD1       14.4650   12.4990   17.4270 C.ar  174  TRP174      0.0946
     48  CD2       12.9330   12.4960   19.0530 C.ar  174  TRP174      0.0152
     49  NE1       14.5720   11.3070   18.1040 N.ar  174  TRP174     -0.2442
     50  CE2       13.6320   11.2720   19.0990 C.ar  174  TRP174      0.0810
     51  CE3       11.9080   12.7190   19.9910 C.ar  174  TRP174      0.0012
     52  CZ2       13.3580   10.2850   20.0400 C.ar  174  TRP174      0.0191
     53  CZ3       11.6160   11.7190   20.9200 C.ar  174  TRP174      0.0001
     54  CH2       12.3500   10.5230   20.9410 C.ar  174  TRP174      0.0015
     55  N         10.4380   18.0430   18.5730 N.3   177  GLU177     -0.1245
     56  CA        10.4060   18.1650   20.0250 C.3   177  GLU177      0.1567
     57  C         11.2440   19.3350   20.5210 C.2   177  GLU177      0.2260
     58  O         10.9910   19.8540   21.6090 O.2   177  GLU177     -0.2867
     59  CB        10.8490   16.8530   20.6760 C.3   177  GLU177      0.0388
     60  CG         9.7480   15.8000   20.6850 C.3   177  GLU177      0.1160
     61  CD         9.1420   15.5400   19.3090 C.2   177  GLU177      0.3649
     62  OE1        9.8830   15.0860   18.4040 O.co2 177  GLU177     -0.2457
     63  OE2        7.9160   15.7870   19.1300 O.co2 177  GLU177     -0.2457
     64  N          5.6960   10.2050   22.0960 N.3   221  TRP221     -0.1241
     65  CA         4.9410    9.7910   20.9140 C.3   221  TRP221      0.1605
     66  C          4.2180    8.4920   21.2590 C.2   221  TRP221      0.2264
     67  O          4.8490    7.4660   21.5040 O.2   221  TRP221     -0.2867
     68  CB         5.8700    9.6020   19.7000 C.3   221  TRP221      0.0550
     69  CG         6.1710   10.8640   18.9750 C.ar  221  TRP221      0.0003
     70  CD1        6.7070   12.0040   19.5000 C.ar  221  TRP221      0.0946
     71  CD2        5.9510   11.1310   17.5860 C.ar  221  TRP221      0.0152
     72  NE1        6.8170   12.9690   18.5280 N.ar  221  TRP221     -0.2442
     73  CE2        6.3490   12.4610   17.3430 C.ar  221  TRP221      0.0810
     74  CE3        5.4140   10.3910   16.5190 C.ar  221  TRP221      0.0012
     75  CZ2        6.2550   13.0540   16.0770 C.ar  221  TRP221      0.0191
     76  CZ3        5.3310   10.9850   15.2680 C.ar  221  TRP221      0.0001
     77  CH2        5.7350   12.3030   15.0650 C.ar  221  TRP221      0.0015
     78  N          4.8790    4.6870   19.0530 N.3   225  THR225     -0.1203
     79  CA         6.3090    4.9390   18.9350 C.3   225  THR225      0.1994
     80  C          7.0880    4.6540   20.2170 C.2   225  THR225      0.2617
     81  O          8.1360    4.0070   20.1800 O.2   225  THR225     -0.2717
     82  CB         6.5220    6.3880   18.4780 C.3   225  THR225      0.1784
     83  OG1        5.8280    6.5910   17.2440 O.3   225  THR225     -0.2211
     84  CG2        7.9870    6.6620   18.1550 C.3   225  THR225      0.0376
     85  N          6.5680    5.1140   21.3560 N.am  226  HIS226     -0.1975
     86  CA         7.2150    4.8640   22.6530 C.3   226  HIS226      0.1656
     87  C          6.4480    3.8290   23.4830 C.2   226  HIS226      0.2291
     88  O          6.4030    3.8920   24.7130 O.2   226  HIS226     -0.2864
     89  CB         7.3990    6.1780   23.4180 C.3   226  HIS226      0.0771
     90  CG         8.2820    7.1680   22.7140 C.ar  226  HIS226      0.0820
     91  ND1        8.2960    8.5110   23.0260 N.ar  226  HIS226     -0.2267
     92  CD2        9.1900    7.0040   21.7190 C.ar  226  HIS226      0.1154
     93  CE1        9.1650    9.1350   22.2470 C.ar  226  HIS226      0.1986
     94  NE2        9.7130    8.2480   21.4360 N.ar  226  HIS226     -0.2212
     95  N          4.5580    8.1460   11.1380 N.3   249  MET249     -0.1245
     96  CA         5.9280    7.6880   11.0150 C.3   249  MET249      0.1570
     97  C          5.9730    6.4390   10.1490 C.2   249  MET249      0.2261
     98  O          4.9690    5.7100   10.0250 O.2   249  MET249     -0.2867
     99  CB         6.5460    7.4380   12.3920 C.3   249  MET249      0.0387
    100  CG         5.8120    6.4980   13.2920 C.3   249  MET249      0.0595
    101  SD         4.2560    7.0990   14.0300 S.3   249  MET249     -0.1393
    102  CE         3.7800    5.5530   14.7630 C.3   249  MET249      0.0692
@<TRIPOS>BOND
     1    30    29    2
     2    27    28    1
     3    98    97    2
     4    97    96    1
     5    29    28    1
     6    28    31    1
     7    96    95    1
     8    96    99    1
     9    26    24    1
    10    31    32    1
    11    37    39   ar
    12    37    34   ar
    13     7     5    1
    14    39    40   ar
    15     1     2    1
    16    99   100    1
    17    32    34   ar
    18    32    33   ar
    19    34    36   ar
    20    24    23    1
    21    40    38   ar
    22     2     5    1
    23     2     3    1
    24    33    35   ar
    25   100   101    1
    26    36    38   ar
    27    36    35   ar
    28     5     6    1
    29    22    21    2
    30   101   102    1
    31    23    25    1
    32    23    20    1
    33     6     8    1
    34     4     3    2
    35    21    20    1
    36    20    19    1
    37    77    76   ar
    38    77    75   ar
    39    76    74   ar
    40    75    73   ar
    41    19    17   am
    42    74    71   ar
    43    14    13    1
    44    18    17    2
    45    43    42    1
    46    43    44    2
    47    83    82    1
    48    17    16    1
    49    73    71   ar
    50    73    72   ar
    51    47    46   ar
    52    47    49   ar
    53    42    45    1
    54    42    41    1
    55    45    46    1
    56    71    69   ar
    57    13    10    1
    58    46    48   ar
    59    49    50   ar
    60    84    82    1
    61    62    61   ar
    62    82    79    1
    63    12    11    2
    64    72    70   ar
    65    55    56    1
    66    16    15    1
    67    11    15   am
    68    11    10    1
    69    79    78    1
    70    79    80    1
    71    69    70   ar
    72    69    68    1
    73    48    50   ar
    74    48    51   ar
    75    50    52   ar
    76    10     9    1
    77    63    61   ar
    78    61    60    1
    79    68    65    1
    80    51    53   ar
    81    56    57    1
    82    56    59    1
    83    52    54   ar
    84    81    80    2
    85    80    85   am
    86    57    58    2
    87    59    60    1
    88    65    66    1
    89    65    64    1
    90    53    54   ar
    91    66    67    2
    92    85    86    1
    93    94    92   ar
    94    94    93   ar
    95    92    90   ar
    96    93    91   ar
    97    86    89    1
    98    86    87    1
    99    90    91   ar
   100    90    89    1
   101    87    88    2
