@<TRIPOS>MOLECULE
tmp/2b4mB00.pdb
 108 107 0 0 0
SMALL
GASTEIGER

@<TRIPOS>ATOM
      1  N         10.4520   16.3620   37.7260 N.3    13  ILE13      -0.1245
      2  CA        11.2630   16.9880   38.7810 C.3    13  ILE13       0.1561
      3  C         12.5210   17.6370   38.1980 C.2    13  ILE13       0.2260
      4  O         12.4790   18.1410   37.0760 O.2    13  ILE13      -0.2867
      5  CB        11.5860   15.9940   39.9220 C.3    13  ILE13       0.0252
      6  CG1       12.1940   14.6920   39.3880 C.3    13  ILE13       0.0019
      7  CG2       10.3380   15.6920   40.7230 C.3    13  ILE13       0.0019
      8  CD1       13.0580   13.9550   40.4210 C.3    13  ILE13       0.0001
      9  N         18.3330   14.7230   37.1440 N.3    17  SER17      -0.1202
     10  CA        17.9880   13.5260   37.9250 C.3    17  SER17       0.2020
     11  C         17.7990   12.2670   37.0780 C.2    17  SER17       0.2619
     12  O         17.5270   12.3490   35.8770 O.2    17  SER17      -0.2717
     13  CB        16.7620   13.7900   38.8090 C.3    17  SER17       0.2103
     14  OG        15.6230   14.1250   38.0380 O.3    17  SER17      -0.2182
     15  N         17.9430   11.1060   37.7160 N.am   18  GLY18      -0.1942
     16  CA        17.9210    9.8200   37.0170 C.3    18  GLY18       0.2014
     17  C         16.5870    9.5560   36.3550 C.2    18  GLY18       0.2638
     18  O         16.5160    9.1250   35.1930 O.2    18  GLY18      -0.2714
     19  N         15.5240    9.8430   37.1000 N.am   19  ILE19      -0.1977
     20  CA        14.1610    9.6620   36.6100 C.3    19  ILE19       0.1596
     21  C         13.8610   10.5380   35.3900 C.2    19  ILE19       0.2287
     22  O         13.0200   10.1890   34.5650 O.2    19  ILE19      -0.2864
     23  CB        13.1380    9.8800   37.7500 C.3    19  ILE19       0.0276
     24  CG1       11.7500    9.3810   37.3320 C.3    19  ILE19       0.0022
     25  CG2       13.1240   11.3360   38.1930 C.3    19  ILE19       0.0022
     26  CD1       10.8570    8.9910   38.5010 C.3    19  ILE19       0.0001
     27  N          8.1320    8.1300   41.8470 N.3    64  TRP64      -0.1241
     28  CA         8.9620    7.0150   42.2770 C.3    64  TRP64       0.1605
     29  C          8.3320    6.4450   43.5310 C.2    64  TRP64       0.2264
     30  O          7.7190    7.1840   44.3050 O.2    64  TRP64      -0.2867
     31  CB        10.4060    7.4490   42.5170 C.3    64  TRP64       0.0550
     32  CG        10.5520    8.6500   43.3740 C.ar   64  TRP64       0.0003
     33  CD1       10.8990    8.6720   44.6940 C.ar   64  TRP64       0.0946
     34  CD2       10.3680   10.0180   42.9860 C.ar   64  TRP64       0.0152
     35  NE1       10.9370    9.9660   45.1550 N.ar   64  TRP64      -0.2442
     36  CE2       10.6120   10.8150   44.1290 C.ar   64  TRP64       0.0810
     37  CE3       10.0090   10.6570   41.7890 C.ar   64  TRP64       0.0012
     38  CZ2       10.5220   12.2160   44.1080 C.ar   64  TRP64       0.0191
     39  CZ3        9.9130   12.0520   41.7740 C.ar   64  TRP64       0.0001
     40  CH2       10.1720   12.8120   42.9270 C.ar   64  TRP64       0.0015
     41  N         16.9890   13.8110   48.7630 N.3   170  TRP170     -0.1241
     42  CA        15.6470   13.2830   48.4860 C.3   170  TRP170      0.1605
     43  C         15.0850   12.7750   49.8020 C.2   170  TRP170      0.2264
     44  O         15.8360   12.3070   50.6580 O.2   170  TRP170     -0.2867
     45  CB        15.6700   12.1370   47.4680 C.3   170  TRP170      0.0550
     46  CG        16.3920   12.4510   46.1920 C.ar  170  TRP170      0.0003
     47  CD1       17.6150   11.9800   45.8120 C.ar  170  TRP170      0.0946
     48  CD2       15.9500   13.3130   45.1320 C.ar  170  TRP170      0.0152
     49  NE1       17.9590   12.4880   44.5820 N.ar  170  TRP170     -0.2442
     50  CE2       16.9580   13.3120   44.1410 C.ar  170  TRP170      0.0810
     51  CE3       14.8050   14.0890   44.9170 C.ar  170  TRP170      0.0012
     52  CZ2       16.8520   14.0490   42.9530 C.ar  170  TRP170      0.0191
     53  CZ3       14.7040   14.8230   43.7310 C.ar  170  TRP170      0.0001
     54  CH2       15.7200   14.7890   42.7690 C.ar  170  TRP170      0.0015
     55  N         13.5060   10.2070   50.7970 N.3   172  SER172     -0.1202
     56  CA        13.8250    8.8230   51.1070 C.3   172  SER172      0.2020
     57  C         15.1680    8.7250   51.8310 C.2   172  SER172      0.2618
     58  O         15.2920    8.0330   52.8510 O.2   172  SER172     -0.2717
     59  CB        13.8500    7.9940   49.8220 C.3   172  SER172      0.2103
     60  OG        14.4620    8.7100   48.7660 O.3   172  SER172     -0.2182
     61  N         16.1600    9.4400   51.3040 N.am  173  GLU173     -0.1979
     62  CA        17.5240    9.3710   51.8100 C.3   173  GLU173      0.1602
     63  C         17.7460   10.2590   53.0280 C.2   173  GLU173      0.2287
     64  O         18.7150   10.0660   53.7640 O.2   173  GLU173     -0.2864
     65  CB        18.5240    9.6750   50.6970 C.3   173  GLU173      0.0415
     66  CG        18.7880    8.4930   49.7780 C.3   173  GLU173      0.1163
     67  CD        17.5390    7.9600   49.0840 C.2   173  GLU173      0.3649
     68  OE1       16.8920    8.7210   48.3250 O.co2 173  GLU173     -0.2457
     69  OE2       17.2170    6.7670   49.2870 O.co2 173  GLU173     -0.2457
     70  N         21.1080    4.5030   44.1370 N.3   217  TRP217     -0.1241
     71  CA        19.9630    3.8460   43.5190 C.3   217  TRP217      0.1605
     72  C         20.4650    3.1860   42.2400 C.2   217  TRP217      0.2264
     73  O         20.8020    3.8600   41.2640 O.2   217  TRP217     -0.2867
     74  CB        18.8670    4.8600   43.2000 C.3   217  TRP217      0.0550
     75  CG        17.9480    5.2330   44.3370 C.ar  217  TRP217      0.0003
     76  CD1       18.2960    5.5630   45.6200 C.ar  217  TRP217      0.0946
     77  CD2       16.5260    5.3610   44.2680 C.ar  217  TRP217      0.0152
     78  NE1       17.1760    5.8580   46.3570 N.ar  217  TRP217     -0.2442
     79  CE2       16.0730    5.7450   45.5510 C.ar  217  TRP217      0.0810
     80  CE3       15.5730    5.1850   43.2420 C.ar  217  TRP217      0.0012
     81  CZ2       14.7130    5.9570   45.8370 C.ar  217  TRP217      0.0191
     82  CZ3       14.2270    5.3920   43.5290 C.ar  217  TRP217      0.0001
     83  CH2       13.8120    5.7740   44.8140 C.ar  217  TRP217      0.0015
     84  N         19.0250    4.1470   38.1730 N.3   221  THR221     -0.1203
     85  CA        19.0500    5.5840   38.4830 C.3   221  THR221      0.1994
     86  C         20.4300    6.2270   38.3010 C.2   221  THR221      0.2617
     87  O         20.5450    7.3330   37.7550 O.2   221  THR221     -0.2717
     88  CB        18.5510    5.8490   39.9170 C.3   221  THR221      0.1784
     89  OG1       17.3300    5.1340   40.1600 O.3   221  THR221     -0.2211
     90  CG2       18.1610    7.3060   40.0780 C.3   221  THR221      0.0376
     91  N         21.4630    5.5350   38.7810 N.am  222  HIS222     -0.1975
     92  CA        22.8350    6.0350   38.7420 C.3   222  HIS222      0.1656
     93  C         23.7110    5.1700   37.8430 C.2   222  HIS222      0.2291
     94  O         24.8910    4.9360   38.1500 O.2   222  HIS222     -0.2864
     95  CB        23.4250    6.1030   40.1570 C.3   222  HIS222      0.0771
     96  CG        22.7130    7.0570   41.0650 C.ar  222  HIS222      0.0820
     97  ND1       22.5580    6.8280   42.4140 N.ar  222  HIS222     -0.2267
     98  CD2       22.0990    8.2380   40.8110 C.ar  222  HIS222      0.1154
     99  CE1       21.8910    7.8320   42.9550 C.ar  222  HIS222      0.1986
    100  NE2       21.5980    8.7000   42.0040 N.ar  222  HIS222     -0.2212
    101  N          9.7090    3.1340   39.4240 N.3   245  MET245     -0.1245
    102  CA         9.5970    4.5150   38.9360 C.3   245  MET245      0.1570
    103  C          8.9900    4.6310   37.5400 C.2   245  MET245      0.2261
    104  O          9.1180    3.7340   36.7000 O.2   245  MET245     -0.2867
    105  CB        10.9380    5.2450   39.0040 C.3   245  MET245      0.0387
    106  CG        12.0660    4.5280   38.3140 C.3   245  MET245      0.0595
    107  SD        13.5970    4.7080   39.2690 S.3   245  MET245     -0.1393
    108  CE        14.6260    3.4860   38.4440 C.3   245  MET245      0.0692
@<TRIPOS>BOND
     1    22    21    2
     2    18    17    2
     3    21    20    1
     4    12    11    2
     5    17    16    1
     6    17    19   am
     7    20    19    1
     8    20    23    1
     9   104   103    2
    10    16    15    1
    11     4     3    2
    12    11    15   am
    13    11    10    1
    14     9    10    1
    15    24    23    1
    16    24    26    1
    17   103   102    1
    18     1     2    1
    19    23    25    1
    20    87    86    2
    21    93    94    2
    22    93    92    1
    23    10    13    1
    24    14    13    1
    25    84    85    1
    26     3     2    1
    27    86    85    1
    28    86    91   am
    29   106   105    1
    30   106   107    1
    31   108   107    1
    32    85    88    1
    33    92    91    1
    34    92    95    1
    35     2     5    1
    36   102   105    1
    37   102   101    1
    38     6     5    1
    39     6     8    1
    40    88    90    1
    41    88    89    1
    42     5     7    1
    43    95    96    1
    44    98    96   ar
    45    98   100   ar
    46    96    97   ar
    47    73    72    2
    48    39    37   ar
    49    39    40   ar
    50    37    34   ar
    51    27    28    1
    52   100    99   ar
    53    72    71    1
    54    28    31    1
    55    28    29    1
    56    97    99   ar
    57    31    32    1
    58    54    52   ar
    59    54    53   ar
    60    40    38   ar
    61    52    50   ar
    62    34    32   ar
    63    34    36   ar
    64    74    71    1
    65    74    75    1
    66    80    82   ar
    67    80    77   ar
    68    32    33   ar
    69    71    70    1
    70    82    83   ar
    71    29    30    2
    72    53    51   ar
    73    38    36   ar
    74    36    35   ar
    75    50    49   ar
    76    50    48   ar
    77    77    75   ar
    78    77    79   ar
    79    75    76   ar
    80    49    47   ar
    81    33    35   ar
    82    83    81   ar
    83    51    48   ar
    84    48    46   ar
    85    79    81   ar
    86    79    78   ar
    87    76    78   ar
    88    47    46   ar
    89    46    45    1
    90    45    42    1
    91    68    67   ar
    92    42    41    1
    93    42    43    1
    94    60    59    1
    95    67    69   ar
    96    67    66    1
    97    66    65    1
    98    43    44    2
    99    59    56    1
   100    65    62    1
   101    55    56    1
   102    56    57    1
   103    61    62    1
   104    61    57   am
   105    62    63    1
   106    57    58    2
   107    63    64    2
