@<TRIPOS>MOLECULE
tmp/2b4pA00.pdb
 108 104 0 0 0
SMALL
GASTEIGER

@<TRIPOS>ATOM
      1  N         -2.9950  -17.8340   23.3260 N.3    25  ARG25      -0.1245
      2  CA        -2.7220  -17.4890   21.9460 C.3    25  ARG25       0.1563
      3  C         -1.2210  -17.3390   21.6940 C.2    25  ARG25       0.2260
      4  O         -0.5100  -16.8290   22.5450 O.2    25  ARG25      -0.2867
      5  CB        -3.4310  -16.1760   21.6120 C.3    25  ARG25       0.0307
      6  CG        -3.1510  -15.6900   20.2330 C.3    25  ARG25       0.0489
      7  CD        -3.1760  -14.2020   20.2100 C.3    25  ARG25       0.2205
      8  NE        -3.1540  -13.6930   18.8470 N.pl3  25  ARG25      -0.0865
      9  CZ        -3.5430  -12.4700   18.5290 C.cat  25  ARG25       0.5346
     10  NH1       -3.9750  -11.6600   19.4840 N.pl3  25  ARG25       0.1354
     11  NH2       -3.5080  -12.0620   17.2680 N.pl3  25  ARG25       0.1354
     12  N         -6.0070  -15.1020   25.6930 N.3   117  TYR117     -0.1241
     13  CA        -6.8830  -14.4070   24.7630 C.3   117  TYR117      0.1605
     14  C         -8.3700  -14.6060   25.0260 C.2   117  TYR117      0.2264
     15  O         -8.8490  -15.7240   25.2210 O.2   117  TYR117     -0.2867
     16  CB        -6.5520  -14.8770   23.3430 C.3   117  TYR117      0.0534
     17  CG        -7.3170  -14.1750   22.2540 C.ar  117  TYR117     -0.0201
     18  CD1       -6.9090  -12.9250   21.7860 C.ar  117  TYR117     -0.0009
     19  CD2       -8.4510  -14.7600   21.6870 C.ar  117  TYR117     -0.0009
     20  CE1       -7.6120  -12.2670   20.7690 C.ar  117  TYR117      0.0417
     21  CE2       -9.1640  -14.1130   20.6700 C.ar  117  TYR117      0.0417
     22  CZ        -8.7340  -12.8670   20.2160 C.ar  117  TYR117      0.1957
     23  OH        -9.4180  -12.2350   19.1960 O.3   117  TYR117     -0.2866
     24  N        -12.0390  -10.2090   21.1860 N.3   120  ARG120     -0.1231
     25  CA       -11.5810   -8.8220   20.9760 C.3   120  ARG120      0.1694
     26  C        -10.2680   -8.5400   21.7130 C.2   120  ARG120      0.2592
     27  O         -9.7770   -7.4000   21.7130 O.2   120  ARG120     -0.2718
     28  CB       -12.6410   -7.8050   21.4430 C.3   120  ARG120      0.0321
     29  CG       -13.9540   -7.8340   20.6640 C.3   120  ARG120      0.0489
     30  CD       -14.8480   -6.6280   20.9970 C.3   120  ARG120      0.2205
     31  NE       -16.1860   -6.7640   20.4100 N.pl3 120  ARG120     -0.0865
     32  CZ       -17.1470   -5.8490   20.5160 C.cat 120  ARG120      0.5346
     33  NH1      -16.9300   -4.7300   21.1860 N.pl3 120  ARG120      0.1354
     34  NH2      -18.3280   -6.0490   19.9490 N.pl3 120  ARG120      0.1354
     35  N         -9.6860   -9.5850   22.3010 N.am  121  ASP121     -0.1974
     36  CA        -8.4720   -9.4720   23.1000 C.3   121  ASP121      0.1709
     37  C         -8.7680   -8.6300   24.3460 C.2   121  ASP121      0.2293
     38  O         -7.9110   -7.8880   24.8290 O.2   121  ASP121     -0.2864
     39  CB        -7.3280   -8.8380   22.2740 C.3   121  ASP121      0.1436
     40  CG        -5.9230   -9.1840   22.8120 C.2   121  ASP121      0.3671
     41  OD1       -5.8010  -10.0250   23.7280 O.co2 121  ASP121     -0.2456
     42  OD2       -4.9230   -8.6110   22.3030 O.co2 121  ASP121     -0.2456
     43  N         -4.3530  -17.6990   15.9440 N.3   153  LEU153     -0.1245
     44  CA        -5.7520  -17.5290   15.5990 C.3   153  LEU153      0.1561
     45  C         -5.9290  -17.5790   14.0920 C.2   153  LEU153      0.2260
     46  O         -5.1010  -17.0690   13.3370 O.2   153  LEU153     -0.2867
     47  CB        -6.2860  -16.2090   16.1610 C.3   153  LEU153      0.0270
     48  CG        -6.1630  -16.0850   17.6860 C.3   153  LEU153      0.0019
     49  CD1       -6.7040  -14.7400   18.1270 C.3   153  LEU153      0.0001
     50  CD2       -6.9170  -17.2290   18.3730 C.3   153  LEU153      0.0001
     51  N        -10.8920  -15.1400   14.1400 N.3   157  LYS157     -0.1245
     52  CA       -10.1970  -14.9760   15.4130 C.3   157  LYS157      0.1561
     53  C        -10.4370  -16.1340   16.3780 C.2   157  LYS157      0.2260
     54  O        -10.6020  -15.9210   17.5800 O.2   157  LYS157     -0.2867
     55  CB       -10.6070  -13.6560   16.0760 C.3   157  LYS157      0.0271
     56  CG       -10.2190  -12.4190   15.2710 C.3   157  LYS157      0.0035
     57  CD        -8.7060  -12.3060   15.1350 C.3   157  LYS157      0.0206
     58  CE        -8.3080  -11.1200   14.2570 C.3   157  LYS157      0.1093
     59  NZ        -6.8240  -11.0150   14.1450 N.3   157  LYS157     -0.1314
     60  N         -6.4650   -3.4270   24.2740 N.3   191  ASN191     -0.1225
     61  CA        -6.2840   -3.4550   22.8220 C.3   191  ASN191      0.1785
     62  C         -7.4940   -2.8490   22.0870 C.2   191  ASN191      0.2597
     63  O         -8.6340   -2.9770   22.5420 O.2   191  ASN191     -0.2718
     64  CB        -6.0750   -4.9080   22.3490 C.3   191  ASN191      0.1169
     65  CG        -5.4760   -4.9880   20.9500 C.2   191  ASN191      0.2627
     66  OD1       -5.2440   -3.9650   20.3100 O.2   191  ASN191     -0.2716
     67  ND2       -5.2160   -6.2060   20.4750 N.am  191  ASN191     -0.0877
     68  N         -7.2120   -2.1400   20.9920 N.am  192  HIS192     -0.1975
     69  CA        -8.2170   -1.5620   20.0790 C.3   192  HIS192      0.1656
     70  C         -8.9040   -0.2920   20.5650 C.2   192  HIS192      0.2291
     71  O         -9.7630    0.2320   19.8420 O.2   192  HIS192     -0.2864
     72  CB        -9.2720   -2.6240   19.7270 C.3   192  HIS192      0.0771
     73  CG        -8.6850   -3.8330   19.0740 C.ar  192  HIS192      0.0820
     74  ND1       -8.7350   -5.0870   19.6450 N.ar  192  HIS192     -0.2267
     75  CD2       -7.9510   -3.9630   17.9430 C.ar  192  HIS192      0.1154
     76  CE1       -8.0540   -5.9360   18.8970 C.ar  192  HIS192      0.1986
     77  NE2       -7.5660   -5.2810   17.8590 N.ar  192  HIS192     -0.2212
     78  N        -16.0590   -6.5270   11.6530 N.3   270  ASP270     -0.1239
     79  CA       -15.2390   -5.6070   12.4430 C.3   270  ASP270      0.1674
     80  C        -15.9480   -4.2790   12.6890 C.2   270  ASP270      0.2266
     81  O        -15.3090   -3.3160   13.1050 O.2   270  ASP270     -0.2867
     82  CB       -13.9260   -5.3080   11.7030 C.3   270  ASP270      0.1410
     83  CG       -12.9770   -6.4860   11.6830 C.2   270  ASP270      0.3668
     84  OD1      -12.1210   -6.5310   10.7650 O.co2 270  ASP270     -0.2456
     85  OD2      -13.0670   -7.3560   12.5810 O.co2 270  ASP270     -0.2456
     86  N        -17.6090   -3.2080   15.0280 N.3   272  TRP272     -0.1227
     87  CA       -17.5150   -2.6820   16.3970 C.3   272  TRP272      0.1737
     88  C        -16.2780   -1.8080   16.5940 C.2   272  TRP272      0.2595
     89  O        -16.2080   -1.0370   17.5450 O.2   272  TRP272     -0.2718
     90  CB       -17.4640   -3.8130   17.4300 C.3   272  TRP272      0.0564
     91  CG       -16.2510   -4.6850   17.3110 C.ar  272  TRP272      0.0003
     92  CD1      -16.1280   -5.8230   16.5630 C.ar  272  TRP272      0.0946
     93  CD2      -14.9880   -4.4950   17.9650 C.ar  272  TRP272      0.0152
     94  NE1      -14.8710   -6.3570   16.7160 N.ar  272  TRP272     -0.2442
     95  CE2      -14.1500   -5.5640   17.5710 C.ar  272  TRP272      0.0810
     96  CE3      -14.4830   -3.5260   18.8470 C.ar  272  TRP272      0.0012
     97  CZ2      -12.8270   -5.6940   18.0330 C.ar  272  TRP272      0.0191
     98  CZ3      -13.1680   -3.6540   19.3040 C.ar  272  TRP272      0.0001
     99  CH2      -12.3580   -4.7340   18.8940 C.ar  272  TRP272      0.0015
    100  N        -15.2970   -1.9340   15.7090 N.am  273  LYS273     -0.1980
    101  CA       -14.0620   -1.1550   15.8520 C.3   273  LYS273      0.1596
    102  C        -14.2390    0.2970   15.4130 C.2   273  LYS273      0.2287
    103  O        -13.5410    1.1960   15.9040 O.2   273  LYS273     -0.2864
    104  CB       -12.9320   -1.7770   15.0170 C.3   273  LYS273      0.0298
    105  CG       -12.5300   -3.1950   15.4090 C.3   273  LYS273      0.0038
    106  CD       -11.3080   -3.6420   14.6030 C.3   273  LYS273      0.0206
    107  CE       -10.8460   -5.0370   15.0200 C.3   273  LYS273      0.1093
    108  NZ        -9.5930   -5.4810   14.3170 N.3   273  LYS273     -0.1314
@<TRIPOS>BOND
     1    84    83   ar
     2    78    79    1
     3    83    82    1
     4    83    85   ar
     5    82    79    1
     6    79    80    1
     7    80    81    2
     8    46    45    2
     9    45    44    1
    10    51    52    1
    11    59    58    1
    12    58    57    1
    13   108   107    1
    14   106   107    1
    15   106   105    1
    16   104   105    1
    17   104   101    1
    18    86    87    1
    19    57    56    1
    20    56    55    1
    21   102   101    1
    22   102   103    2
    23    52    55    1
    24    52    53    1
    25    44    43    1
    26    44    47    1
    27   100   101    1
    28   100    88   am
    29    47    48    1
    30    53    54    2
    31    87    88    1
    32    87    90    1
    33    92    94   ar
    34    92    91   ar
    35    88    89    2
    36    94    95   ar
    37    11     9    1
    38    91    90    1
    39    91    93   ar
    40    95    93   ar
    41    95    97   ar
    42    48    49    1
    43    48    50    1
    44    77    75   ar
    45    77    76   ar
    46    75    73   ar
    47    93    96   ar
    48    97    99   ar
    49     9     8    2
    50     9    10    1
    51    96    98   ar
    52     8     7    1
    53    99    98   ar
    54    76    74   ar
    55    73    74   ar
    56    73    72    1
    57    23    22    1
    58    72    69    1
    59    71    70    2
    60    34    32    1
    61    69    70    1
    62    69    68    1
    63     7     6    1
    64    22    21   ar
    65    22    20   ar
    66     6     5    1
    67    66    65    2
    68    31    32    2
    69    31    30    1
    70    67    65   am
    71    32    33    1
    72    29    30    1
    73    29    28    1
    74    21    19   ar
    75    20    18   ar
    76    65    64    1
    77    25    24    1
    78    25    28    1
    79    25    26    1
    80    68    62   am
    81     5     2    1
    82    19    17   ar
    83     3     2    1
    84     3     4    2
    85    26    27    2
    86    26    35   am
    87    18    17   ar
    88     2     1    1
    89    62    63    2
    90    62    61    1
    91    17    16    1
    92    39    40    1
    93    39    36    1
    94    35    36    1
    95    42    40   ar
    96    64    61    1
    97    40    41   ar
    98    61    60    1
    99    36    37    1
   100    16    13    1
   101    37    38    2
   102    13    14    1
   103    13    12    1
   104    14    15    2
