@<TRIPOS>MOLECULE
tmp/2b4uA00.pdb
 84 79 0 0 0
SMALL
GASTEIGER

@<TRIPOS>ATOM
      1  N         -4.5550    2.8070    1.1100 N.3    50  LYS50      -0.1245
      2  CA        -5.7670    2.8000    1.9280 C.3    50  LYS50       0.1561
      3  C         -5.9950    4.1110    2.6790 C.2    50  LYS50       0.2260
      4  O         -7.1350    4.4470    2.9960 O.2    50  LYS50      -0.2867
      5  CB        -5.7330    1.6420    2.9330 C.3    50  LYS50       0.0271
      6  CG        -4.4950    1.6190    3.8270 C.3    50  LYS50       0.0035
      7  CD        -4.4800    0.4160    4.7690 C.3    50  LYS50       0.0206
      8  CE        -5.5110    0.5620    5.8830 C.3    50  LYS50       0.1093
      9  NZ        -5.4420   -0.5600    6.8690 N.3    50  LYS50      -0.1314
     10  N         -6.4920   -3.4460   23.3140 N.3   188  ASP188     -0.1225
     11  CA        -6.3150   -3.5830   21.8700 C.3   188  ASP188      0.1805
     12  C         -7.4990   -2.9700   21.0970 C.2   188  ASP188      0.2597
     13  O         -8.6390   -3.0220   21.5570 O.2   188  ASP188     -0.2718
     14  CB        -6.1830   -5.0800   21.5210 C.3   188  ASP188      0.1424
     15  CG        -5.7040   -5.3280   20.0880 C.2   188  ASP188      0.3668
     16  OD1       -5.4240   -4.3580   19.3640 O.co2 188  ASP188     -0.2456
     17  OD2       -5.5930   -6.5080   19.6880 O.co2 188  ASP188     -0.2456
     18  N         -7.2060   -2.3530   19.9540 N.am  189  HIS189     -0.1975
     19  CA        -8.2170   -1.7950   19.0350 C.3   189  HIS189      0.1656
     20  C         -8.8010   -0.4300   19.4130 C.2   189  HIS189      0.2291
     21  O         -9.5430    0.1450   18.6190 O.2   189  HIS189     -0.2864
     22  CB        -9.3650   -2.7810   18.8540 C.3   189  HIS189      0.0771
     23  CG        -8.9250   -4.1520   18.4430 C.ar  189  HIS189      0.0820
     24  ND1       -8.2600   -4.3990   17.2610 N.ar  189  HIS189     -0.2267
     25  CD2       -9.0520   -5.3500   19.0610 C.ar  189  HIS189      0.1154
     26  CE1       -7.9940   -5.6900   17.1690 C.ar  189  HIS189      0.1986
     27  NE2       -8.4640   -6.2890   18.2490 N.ar  189  HIS189     -0.2212
     28  N          0.2310   -6.6080   17.2160 N.3   219  ALA219     -0.1245
     29  CA         0.5540   -6.5170   15.7890 C.3   219  ALA219      0.1562
     30  C          1.6130   -5.4420   15.5130 C.2   219  ALA219      0.2260
     31  O          2.2750   -5.4620   14.4690 O.2   219  ALA219     -0.2867
     32  CB        -0.7120   -6.2130   14.9880 C.3   219  ALA219      0.0290
     33  N          0.8520   -2.1790   15.3890 N.3   221  VAL221     -0.1231
     34  CA         0.2080   -1.1900   14.5260 C.3   221  VAL221      0.1692
     35  C         -0.5620   -0.1190   15.3000 C.2   221  VAL221      0.2592
     36  O         -0.0620    0.9920   15.4760 O.2   221  VAL221     -0.2718
     37  CB        -0.7600   -1.8650   13.5250 C.3   221  VAL221      0.0266
     38  CG1       -1.3870   -0.8100   12.6110 C.3   221  VAL221      0.0020
     39  CG2       -0.0120   -2.9060   12.7050 C.3   221  VAL221      0.0020
     40  N         -1.7780   -0.4550   15.7350 N.am  222  GLY222     -0.1957
     41  CA        -2.6320    0.4980   16.4380 C.3   222  GLY222      0.1869
     42  C         -2.0930    1.1740   17.6950 C.2   222  GLY222      0.2309
     43  O         -1.8660    2.3910   17.7310 O.2   222  GLY222     -0.2863
     44  N          0.9570    3.1840   11.5100 N.3   251  PHE251     -0.1241
     45  CA        -0.4200    3.3970   11.1070 C.3   251  PHE251      0.1605
     46  C         -0.6600    4.8930   10.9020 C.2   251  PHE251      0.2264
     47  O          0.0260    5.7190   11.5190 O.2   251  PHE251     -0.2867
     48  CB        -1.3470    2.8330   12.1960 C.3   251  PHE251      0.0534
     49  CG        -2.8170    2.9280   11.8720 C.ar  251  PHE251     -0.0203
     50  CD1       -3.5800    3.9850   12.3550 C.ar  251  PHE251     -0.0042
     51  CD2       -3.4380    1.9550   11.0890 C.ar  251  PHE251     -0.0042
     52  CE1       -4.9400    4.0740   12.0680 C.ar  251  PHE251     -0.0003
     53  CE2       -4.8030    2.0370   10.7940 C.ar  251  PHE251     -0.0003
     54  CZ        -5.5540    3.1000   11.2850 C.ar  251  PHE251     -0.0000
     55  N        -15.1200   -2.2410   14.7690 N.3   267  LYS267     -0.1245
     56  CA       -13.8830   -1.4750   14.9010 C.3   267  LYS267      0.1561
     57  C        -14.0250   -0.0380   14.3970 C.2   267  LYS267      0.2260
     58  O        -13.2570    0.8390   14.7970 O.2   267  LYS267     -0.2867
     59  CB       -12.7520   -2.1530   14.1200 C.3   267  LYS267      0.0271
     60  CG       -12.4550   -3.5830   14.5450 C.3   267  LYS267      0.0035
     61  CD       -11.2290   -4.1380   13.8190 C.3   267  LYS267      0.0206
     62  CE       -10.9550   -5.5850   14.2260 C.3   267  LYS267      0.1093
     63  NZ        -9.6770   -6.1510   13.6710 N.3   267  LYS267     -0.1314
     64  N        -12.0030    3.5130   15.5290 N.3   271  TYR271     -0.1241
     65  CA       -11.0250    4.1600   14.6610 C.3   271  TYR271      0.1605
     66  C        -11.3280    5.6520   14.5680 C.2   271  TYR271      0.2264
     67  O        -10.4260    6.4790   14.5340 O.2   271  TYR271     -0.2867
     68  CB       -11.0610    3.5710   13.2490 C.3   271  TYR271      0.0534
     69  CG       -10.2840    2.2910   13.0740 C.ar  271  TYR271     -0.0201
     70  CD1       -8.9190    2.2380   13.3340 C.ar  271  TYR271     -0.0009
     71  CD2      -10.9160    1.1330   12.6270 C.ar  271  TYR271     -0.0009
     72  CE1       -8.1990    1.0560   13.1510 C.ar  271  TYR271      0.0417
     73  CE2      -10.2120   -0.0520   12.4390 C.ar  271  TYR271      0.0417
     74  CZ        -8.8560   -0.0850   12.7010 C.ar  271  TYR271      0.1957
     75  OH        -8.1650   -1.2600   12.5040 O.3   271  TYR271     -0.2866
     76  N        -10.2780    7.3490   17.8360 N.3   274  LYS274     -0.1245
     77  CA        -8.8340    7.5570   17.9100 C.3   274  LYS274      0.1561
     78  C         -8.4010    8.7710   17.0860 C.2   274  LYS274      0.2260
     79  O         -7.4870    9.4920   17.4770 O.2   274  LYS274     -0.2867
     80  CB        -8.0800    6.3020   17.4560 C.3   274  LYS274      0.0271
     81  CG        -8.2250    5.1580   18.4390 C.3   274  LYS274      0.0035
     82  CD        -7.2350    4.0410   18.1920 C.3   274  LYS274      0.0206
     83  CE        -7.5780    3.2290   16.9520 C.3   274  LYS274      0.1093
     84  NZ        -6.7590    1.9630   16.9170 N.3   274  LYS274     -0.1314
@<TRIPOS>BOND
     1     1     2    1
     2     2     3    1
     3     2     5    1
     4     3     4    2
     5     5     6    1
     6     6     7    1
     7     7     8    1
     8     8     9    1
     9    53    51   ar
    10    53    54   ar
    11    46    45    1
    12    46    47    2
    13    51    49   ar
    14    45    44    1
    15    45    48    1
    16    54    52   ar
    17    49    48    1
    18    49    50   ar
    19    52    50   ar
    20    73    71   ar
    21    73    74   ar
    22    75    74    1
    23    38    37    1
    24    71    69   ar
    25    74    72   ar
    26    39    37    1
    27    69    68    1
    28    69    70   ar
    29    72    70   ar
    30    68    65    1
    31    37    34    1
    32    63    62    1
    33    61    62    1
    34    61    60    1
    35    59    60    1
    36    59    56    1
    37    57    58    2
    38    57    56    1
    39    31    30    2
    40    34    35    1
    41    34    33    1
    42    67    66    2
    43    66    65    1
    44    65    64    1
    45    55    56    1
    46    32    29    1
    47    35    36    2
    48    35    40   am
    49    30    29    1
    50    40    41    1
    51    29    28    1
    52    41    42    1
    53    84    83    1
    54    83    82    1
    55    78    79    2
    56    78    77    1
    57    26    24   ar
    58    26    27   ar
    59    24    23   ar
    60    80    77    1
    61    80    81    1
    62    42    43    2
    63    76    77    1
    64    82    81    1
    65    27    25   ar
    66    23    22    1
    67    23    25   ar
    68    21    20    2
    69    22    19    1
    70    19    20    1
    71    19    18    1
    72    16    15   ar
    73    17    15   ar
    74    18    12   am
    75    15    14    1
    76    12    13    2
    77    12    11    1
    78    14    11    1
    79    11    10    1
