@<TRIPOS>MOLECULE
tmp/2b4yD00.pdb
 179 174 0 0 0
SMALL
GASTEIGER

@<TRIPOS>ATOM
      1  N         25.5490   33.1120   47.7710 N.3    22  GLY22      -0.1210
      2  CA        26.2530   33.5750   48.9490 C.3    22  GLY22       0.1956
      3  C         26.5890   35.0550   48.7240 C.2    22  GLY22       0.2612
      4  O         26.0820   35.6690   47.7730 O.2    22  GLY22      -0.2717
      5  N         27.4890   35.5730   49.5570 N.am   23  ALA23      -0.1965
      6  CA        27.7540   37.0070   49.6580 C.3    23  ALA23       0.1728
      7  C         28.4120   37.5970   48.4070 C.2    23  ALA23       0.2616
      8  O         28.2820   38.8050   48.1530 O.2    23  ALA23      -0.2715
      9  CB        28.5950   37.2990   50.8980 C.3    23  ALA23       0.0334
     10  N         29.1540   36.7640   47.6760 N.am   24  GLY24      -0.1955
     11  CA        29.6920   37.1220   46.3320 C.3    24  GLY24       0.1869
     12  C         28.6590   37.6870   45.3350 C.2    24  GLY24       0.2309
     13  O         29.0100   38.5480   44.4860 O.2    24  GLY24      -0.2863
     14  N         28.4130   41.4290   46.2110 N.3    27  ALA27      -0.1231
     15  CA        29.6970   42.1050   46.3880 C.3    27  ALA27       0.1694
     16  C         29.7530   43.2980   45.4610 C.2    27  ALA27       0.2591
     17  O         30.2440   44.3620   45.8620 O.2    27  ALA27      -0.2718
     18  CB        30.8770   41.1550   46.1510 C.3    27  ALA27       0.0304
     19  N         29.1680   43.1650   44.2750 N.am   28  GLU28      -0.1979
     20  CA        29.1780   44.2860   43.3030 C.3    28  GLU28       0.1602
     21  C         28.0710   45.3370   43.5810 C.2    28  GLU28       0.2287
     22  O         27.8870   46.2840   42.8190 O.2    28  GLU28      -0.2864
     23  CB        29.1640   43.7630   41.8540 C.3    28  GLU28       0.0415
     24  CG        30.4270   42.9330   41.4770 C.3    28  GLU28       0.1163
     25  CD        30.2380   42.0330   40.2310 C.2    28  GLU28       0.3649
     26  OE1       30.1570   42.5810   39.0890 O.co2  28  GLU28      -0.2457
     27  OE2       30.2010   40.7700   40.3820 O.co2  28  GLU28      -0.2457
     28  N         31.6920   41.0350   51.6890 N.3    33  THR33      -0.1203
     29  CA        31.5390   39.6000   51.8770 C.3    33  THR33       0.1994
     30  C         32.1060   39.2290   53.2510 C.2    33  THR33       0.2617
     31  O         32.6000   40.1010   53.9790 O.2    33  THR33      -0.2717
     32  CB        32.2360   38.7590   50.7750 C.3    33  THR33       0.1784
     33  OG1       33.6460   38.9270   50.8870 O.3    33  THR33      -0.2211
     34  CG2       31.7800   39.1380   49.3740 C.3    33  THR33       0.0376
     35  N         32.0010   37.9480   53.6050 N.am   34  PHE34      -0.1975
     36  CA        32.6090   37.3980   54.8180 C.3    34  PHE34       0.1639
     37  C         33.9300   36.7910   54.3250 C.2    34  PHE34       0.2290
     38  O         34.8230   36.4510   55.0920 O.2    34  PHE34      -0.2864
     39  CB        31.6850   36.3320   55.4820 C.3    34  PHE34       0.0560
     40  CG        30.2360   36.7540   55.5890 C.ar   34  PHE34      -0.0200
     41  CD1       29.7790   37.4770   56.7040 C.ar   34  PHE34      -0.0042
     42  CD2       29.3150   36.4360   54.5850 C.ar   34  PHE34      -0.0042
     43  CE1       28.4100   37.9100   56.7990 C.ar   34  PHE34      -0.0003
     44  CE2       27.9350   36.8530   54.6680 C.ar   34  PHE34      -0.0003
     45  CZ        27.4900   37.5710   55.7540 C.ar   34  PHE34      -0.0000
     46  N         21.9310   32.4530   51.1180 N.3    98  GLN98      -0.1231
     47  CA        22.5540   32.5970   52.4490 C.3    98  GLN98       0.1698
     48  C         22.5920   34.0670   52.9230 C.2    98  GLN98       0.2592
     49  O         22.9460   34.3730   54.0750 O.2    98  GLN98      -0.2718
     50  CB        23.9670   32.0810   52.3630 C.3    98  GLN98       0.0381
     51  CG        23.9880   30.5500   52.1120 C.3    98  GLN98       0.0905
     52  CD        25.3220   30.0760   51.6950 C.2    98  GLN98       0.2608
     53  OE1       26.0750   29.6000   52.5280 O.2    98  GLN98      -0.2717
     54  NE2       25.6730   30.2590   50.4240 N.am   98  GLN98      -0.0878
     55  N         22.2350   34.9560   52.0170 N.am   99  ASN99      -0.1974
     56  CA        22.3180   36.4150   52.2430 C.3    99  ASN99       0.1688
     57  C         21.0780   36.9750   52.9920 C.2    99  ASN99       0.2292
     58  O         19.9040   36.5840   52.7290 O.2    99  ASN99      -0.2864
     59  CB        22.4570   37.1620   50.9000 C.3    99  ASN99       0.1181
     60  CG        23.6840   36.7490   50.1100 C.2    99  ASN99       0.2629
     61  OD1       24.6630   36.2490   50.6650 O.2    99  ASN99      -0.2716
     62  ND2       23.6600   37.0160   48.8110 N.am   99  ASN99      -0.0877
     63  N         19.0960   32.0760   55.8870 N.3   116  HIS116     -0.1241
     64  CA        19.6590   32.6990   57.0940 C.3   116  HIS116      0.1621
     65  C         18.7910   33.8450   57.6650 C.2   116  HIS116      0.2264
     66  O         19.2310   34.5670   58.5820 O.2   116  HIS116     -0.2867
     67  CB        21.1230   33.1270   56.9100 C.3   116  HIS116      0.0745
     68  CG        22.0820   31.9920   56.6790 C.ar  116  HIS116      0.0817
     69  ND1       23.2700   32.1590   55.9950 N.ar  116  HIS116     -0.2268
     70  CD2       21.9980   30.6730   56.9680 C.ar  116  HIS116      0.1154
     71  CE1       23.9120   31.0030   55.9370 C.ar  116  HIS116      0.1986
     72  NE2       23.1470   30.0800   56.5010 N.ar  116  HIS116     -0.2212
     73  N         24.9430   33.1350   64.9870 N.3   181  PHE181     -0.1241
     74  CA        25.8740   32.1470   65.5980 C.3   181  PHE181      0.1605
     75  C         25.2600   31.4900   66.8560 C.2   181  PHE181      0.2264
     76  O         24.5820   32.1450   67.6370 O.2   181  PHE181     -0.2867
     77  CB        27.2020   32.7850   66.0390 C.3   181  PHE181      0.0534
     78  CG        28.0920   33.2110   64.8950 C.ar  181  PHE181     -0.0203
     79  CD1       28.9690   32.3090   64.2960 C.ar  181  PHE181     -0.0042
     80  CD2       28.0560   34.5460   64.4320 C.ar  181  PHE181     -0.0042
     81  CE1       29.8230   32.7070   63.2490 C.ar  181  PHE181     -0.0003
     82  CE2       28.8910   34.9620   63.3880 C.ar  181  PHE181     -0.0003
     83  CZ        29.7640   34.0530   62.7860 C.ar  181  PHE181     -0.0000
     84  N         28.6840   32.9830   43.9970 N.3   207  GLY207     -0.1210
     85  CA        29.3140   33.7940   45.0120 C.3   207  GLY207      0.1956
     86  C         29.3090   33.2390   46.4200 C.2   207  GLY207      0.2613
     87  O         29.0870   33.9660   47.3680 O.2   207  GLY207     -0.2717
     88  N         29.6240   31.9620   46.5560 N.am  208  THR208     -0.1938
     89  CA        29.7540   31.3290   47.8540 C.3   208  THR208      0.2028
     90  C         31.0630   30.5410   47.9750 C.2   208  THR208      0.2643
     91  O         31.5050   29.9090   47.0180 O.2   208  THR208     -0.2714
     92  CB        28.4760   30.4610   48.1590 C.3   208  THR208      0.1808
     93  OG1       28.4770   30.0040   49.5140 O.3   208  THR208     -0.2208
     94  CG2       28.3080   29.2750   47.1840 C.3   208  THR208      0.0379
     95  N         31.6440   30.5500   49.1690 N.am  209  SER209     -0.1935
     96  CA        32.9080   29.8860   49.4360 C.3   209  SER209      0.2055
     97  C         32.7790   28.3840   49.5940 C.2   209  SER209      0.2644
     98  O         33.7840   27.7040   49.6490 O.2   209  SER209     -0.2714
     99  CB        33.5540   30.4700   50.7070 C.3   209  SER209      0.2130
    100  OG        32.6220   30.5080   51.7870 O.3   209  SER209     -0.2179
    101  N         31.5540   27.8690   49.6790 N.am  210  SER210     -0.1935
    102  CA        31.3120   26.4380   49.8480 C.3   210  SER210      0.2055
    103  C         32.0680   25.7850   51.0020 C.2   210  SER210      0.2643
    104  O         32.5350   24.6380   50.9060 O.2   210  SER210     -0.2714
    105  CB        31.5390   25.6920   48.5320 C.3   210  SER210      0.2130
    106  OG        30.5320   26.0730   47.6110 O.3   210  SER210     -0.2179
    107  N         32.1210   26.4910   52.1220 N.am  211  VAL211     -0.1963
    108  CA        32.7300   25.9690   53.3470 C.3   211  VAL211      0.1727
    109  C         31.8100   25.9070   54.5780 C.2   211  VAL211      0.2616
    110  O         31.9800   25.0020   55.4100 O.2   211  VAL211     -0.2715
    111  CB        34.0750   26.7000   53.6840 C.3   211  VAL211      0.0290
    112  CG1       35.1130   26.4300   52.5770 C.3   211  VAL211      0.0023
    113  CG2       33.8710   28.1730   53.8450 C.3   211  VAL211      0.0023
    114  N         30.8770   26.8640   54.7180 N.am  212  VAL212     -0.1977
    115  CA        29.9180   26.9360   55.8620 C.3   212  VAL212      0.1596
    116  C         28.6740   26.0070   55.6930 C.2   212  VAL212      0.2287
    117  O         27.8430   26.1600   54.7540 O.2   212  VAL212     -0.2864
    118  CB        29.4670   28.4340   56.1820 C.3   212  VAL212      0.0276
    119  CG1       28.5000   28.5050   57.3920 C.3   212  VAL212      0.0022
    120  CG2       30.6920   29.3410   56.4480 C.3   212  VAL212      0.0022
    121  N         29.6650   29.7580   39.7280 N.3   231  PHE231     -0.1227
    122  CA        30.0200   31.1480   39.3910 C.3   231  PHE231      0.1736
    123  C         30.7080   31.8330   40.5460 C.2   231  PHE231      0.2595
    124  O         30.0750   32.2670   41.5120 O.2   231  PHE231     -0.2718
    125  CB        28.7990   31.9600   39.0120 C.3   231  PHE231      0.0547
    126  CG        28.1320   31.4880   37.7480 C.ar  231  PHE231     -0.0202
    127  CD1       28.4600   32.0570   36.5110 C.ar  231  PHE231     -0.0042
    128  CD2       27.1860   30.4610   37.7920 C.ar  231  PHE231     -0.0042
    129  CE1       27.8430   31.6240   35.3500 C.ar  231  PHE231     -0.0003
    130  CE2       26.5490   30.0290   36.6220 C.ar  231  PHE231     -0.0003
    131  CZ        26.8790   30.6070   35.4060 C.ar  231  PHE231     -0.0000
    132  N         32.0190   31.9590   40.4300 N.am  232  ASN232     -0.1960
    133  CA        32.8100   32.4880   41.5110 C.3   232  ASN232      0.1819
    134  C         34.0110   33.2210   40.9170 C.2   232  ASN232      0.2622
    135  O         34.5640   32.8540   39.8780 O.2   232  ASN232     -0.2715
    136  CB        33.2080   31.3950   42.5030 C.3   232  ASN232      0.1195
    137  CG        33.6290   31.9370   43.8900 C.2   232  ASN232      0.2630
    138  OD1       34.6090   32.6530   44.0170 O.2   232  ASN232     -0.2716
    139  ND2       32.9100   31.5280   44.9390 N.am  232  ASN232     -0.0877
    140  N         34.3260   34.3240   41.5620 N.am  233  THR233     -0.1937
    141  CA        35.4760   35.1220   41.2380 C.3   233  THR233      0.2028
    142  C         36.7320   34.2620   41.4500 C.2   233  THR233      0.2642
    143  O         37.8110   34.5620   40.9290 O.2   233  THR233     -0.2714
    144  CB        35.4040   36.3540   42.1290 C.3   233  THR233      0.1808
    145  OG1       35.8810   37.5080   41.4280 O.3   233  THR233     -0.2208
    146  CG2       36.0820   36.1150   43.4540 C.3   233  THR233      0.0379
    147  N         36.5830   33.1530   42.1710 N.am  234  GLU234     -0.1976
    148  CA        37.6900   32.2430   42.3700 C.3   234  GLU234      0.1602
    149  C         37.2650   30.7750   42.5700 C.2   234  GLU234      0.2287
    150  O         36.0700   30.4680   42.5600 O.2   234  GLU234     -0.2864
    151  CB        38.5390   32.7080   43.5360 C.3   234  GLU234      0.0415
    152  CG        38.0890   32.2790   44.8890 C.3   234  GLU234      0.1163
    153  CD        38.7980   33.0390   45.9830 C.2   234  GLU234      0.3649
    154  OE1       39.5650   33.9730   45.6620 O.co2 234  GLU234     -0.2457
    155  OE2       38.5900   32.7130   47.1640 O.co2 234  GLU234     -0.2457
    156  N         37.1540   27.1370   44.8550 N.3   236  THR236     -0.1218
    157  CA        36.7460   26.7990   46.2250 C.3   236  THR236      0.1862
    158  C         37.0020   25.3170   46.4890 C.2   236  THR236      0.2287
    159  O         37.2840   24.5730   45.5630 O.2   236  THR236     -0.2866
    160  CB        35.2130   27.0740   46.5070 C.3   236  THR236      0.1770
    161  OG1       34.4070   26.0840   45.8450 O.3   236  THR236     -0.2211
    162  CG2       34.7860   28.4670   46.1160 C.3   236  THR236      0.0375
    163  N         34.8030   34.4650   37.3480 N.3   248  GLY248     -0.1210
    164  CA        34.6790   35.8910   37.1190 C.3   248  GLY248      0.1940
    165  C         33.6890   36.5450   38.0700 C.2   248  GLY248      0.2454
    166  O         33.0380   35.8560   38.8810 O.2   248  GLY248     -0.2732
    167  N         33.5790   37.8800   37.9940 N.am  249  PRO249     -0.2717
    168  CA        32.5650   38.5040   38.8130 C.3   249  PRO249      0.1535
    169  C         31.1970   38.1290   38.2510 C.2   249  PRO249      0.2598
    170  O         30.9540   38.2460   37.0400 O.2   249  PRO249     -0.2715
    171  CB        32.8510   40.0050   38.6630 C.3   249  PRO249      0.0310
    172  CG        33.6290   40.1270   37.3620 C.3   249  PRO249      0.0237
    173  CD        34.3660   38.8420   37.1940 C.3   249  PRO249      0.0939
    174  N         30.2900   37.6790   39.1120 N.am  250  CYS250     -0.1968
    175  CA        29.0370   37.1610   38.5850 C.3   250  CYS250      0.1712
    176  C         28.1250   38.2640   38.0020 C.2   250  CYS250      0.2296
    177  O         27.2220   37.9800   37.2300 O.2   250  CYS250     -0.2864
    178  CB        28.3400   36.2620   39.6080 C.3   250  CYS250      0.0983
    179  SG        27.9490   37.0550   41.1360 S.3   250  CYS250     -0.0798
@<TRIPOS>BOND
     1   129   131   ar
     2   129   127   ar
     3   131   130   ar
     4   127   126   ar
     5   130   128   ar
     6   170   169    2
     7   164   163    1
     8   164   165    1
     9   173   172    1
    10   173   167    1
    11   177   176    2
    12   172   171    1
    13   126   128   ar
    14   126   125    1
    15   167   165   am
    16   167   168    1
    17   176   175    1
    18   165   166    2
    19   169   168    1
    20   169   174   am
    21   175   174    1
    22   175   178    1
    23   171   168    1
    24   125   122    1
    25    26    25   ar
    26   122   121    1
    27   122   123    1
    28   178   179    1
    29   135   134    2
    30    25    27   ar
    31    25    24    1
    32   132   123   am
    33   132   133    1
    34   123   124    2
    35   134   133    1
    36   134   140   am
    37   143   142    2
    38   141   142    1
    39   141   140    1
    40   141   144    1
    41   145   144    1
    42   142   147   am
    43    24    23    1
    44   133   136    1
    45    23    20    1
    46   144   146    1
    47   147   148    1
    48   148   149    1
    49   148   151    1
    50   136   137    1
    51   150   149    2
    52    22    21    2
    53    20    21    1
    54    20    19    1
    55   151   152    1
    56   137   138    2
    57   137   139   am
    58    84    85    1
    59    19    16   am
    60    13    12    2
    61   156   157    1
    62   152   153    1
    63    85    86    1
    64    12    11    1
    65    16    17    2
    66    16    15    1
    67   159   158    2
    68   154   153   ar
    69   161   160    1
    70   153   155   ar
    71   162   160    1
    72    18    15    1
    73    14    15    1
    74   157   158    1
    75   157   160    1
    76    11    10    1
    77    86    88   am
    78    86    87    2
    79    88    89    1
    80    91    90    2
    81    94    92    1
    82   106   105    1
    83    10     7   am
    84     1     2    1
    85     4     3    2
    86    89    90    1
    87    89    92    1
    88    90    95   am
    89     8     7    2
    90    92    93    1
    91     7     6    1
    92   105   102    1
    93     3     2    1
    94     3     5   am
    95    62    60   am
    96    95    96    1
    97    34    32    1
    98    96    97    1
    99    96    99    1
   100     5     6    1
   101    97    98    2
   102    97   101   am
   103     6     9    1
   104   101   102    1
   105   102   103    1
   106    60    61    2
   107    60    59    1
   108    54    52   am
   109    99   100    1
   110    32    33    1
   111    32    29    1
   112    59    56    1
   113   104   103    2
   114   103   107   am
   115    46    47    1
   116    28    29    1
   117    52    51    1
   118    52    53    2
   119    29    30    1
   120    55    56    1
   121    55    48   am
   122    51    50    1
   123   107   108    1
   124    56    57    1
   125    50    47    1
   126    47    48    1
   127   112   111    1
   128    58    57    2
   129    48    49    2
   130    30    35   am
   131    30    31    2
   132   108   111    1
   133   108   109    1
   134    35    36    1
   135   111   113    1
   136    37    36    1
   137    37    38    2
   138   109   114   am
   139   109   110    2
   140    42    44   ar
   141    42    40   ar
   142    44    45   ar
   143   114   115    1
   144   117   116    2
   145    36    39    1
   146    39    40    1
   147    40    41   ar
   148   116   115    1
   149    45    43   ar
   150   115   118    1
   151    63    64    1
   152    71    69   ar
   153    71    72   ar
   154    69    68   ar
   155   118   120    1
   156   118   119    1
   157    72    70   ar
   158    68    67    1
   159    68    70   ar
   160    41    43   ar
   161    67    64    1
   162    64    65    1
   163    65    66    2
   164    83    81   ar
   165    83    82   ar
   166    81    79   ar
   167    82    80   ar
   168    79    78   ar
   169    80    78   ar
   170    78    77    1
   171    73    74    1
   172    74    77    1
   173    74    75    1
   174    75    76    2
