@<TRIPOS>MOLECULE
tmp/2b4yD01.pdb
 145 143 0 0 0
SMALL
GASTEIGER

@<TRIPOS>ATOM
      1  N         32.0010   37.9480   53.6050 N.3    34  PHE34      -0.1241
      2  CA        32.6090   37.3980   54.8180 C.3    34  PHE34       0.1605
      3  C         33.9300   36.7910   54.3250 C.2    34  PHE34       0.2264
      4  O         34.8230   36.4510   55.0920 O.2    34  PHE34      -0.2867
      5  CB        31.6850   36.3320   55.4820 C.3    34  PHE34       0.0534
      6  CG        30.2360   36.7540   55.5890 C.ar   34  PHE34      -0.0203
      7  CD1       29.7790   37.4770   56.7040 C.ar   34  PHE34      -0.0042
      8  CD2       29.3150   36.4360   54.5850 C.ar   34  PHE34      -0.0042
      9  CE1       28.4100   37.9100   56.7990 C.ar   34  PHE34      -0.0003
     10  CE2       27.9350   36.8530   54.6680 C.ar   34  PHE34      -0.0003
     11  CZ        27.4900   37.5710   55.7540 C.ar   34  PHE34      -0.0000
     12  N         31.2910   40.0150   64.1250 N.3    41  ALA41      -0.1245
     13  CA        29.9280   39.4940   64.1160 C.3    41  ALA41       0.1562
     14  C         29.7310   38.3250   65.1130 C.2    41  ALA41       0.2260
     15  O         28.7430   38.2570   65.8030 O.2    41  ALA41      -0.2867
     16  CB        29.5210   39.1170   62.7160 C.3    41  ALA41       0.0290
     17  N         26.3870   38.6760   67.1010 N.3    45  ALA45      -0.1245
     18  CA        25.2790   37.9400   66.4810 C.3    45  ALA45       0.1562
     19  C         25.1180   36.5980   67.1430 C.2    45  ALA45       0.2260
     20  O         25.4360   35.5840   66.5300 O.2    45  ALA45      -0.2867
     21  CB        25.5700   37.7320   65.0060 C.3    45  ALA45       0.0290
     22  N         22.8110   45.8210   64.4370 N.3    61  TYR61      -0.1241
     23  CA        21.8140   45.5470   63.3740 C.3    61  TYR61       0.1605
     24  C         21.2050   46.8050   62.7360 C.2    61  TYR61       0.2264
     25  O         20.8200   46.7680   61.5500 O.2    61  TYR61      -0.2867
     26  CB        20.7380   44.5780   63.8370 C.3    61  TYR61       0.0534
     27  CG        21.2920   43.1750   63.7490 C.ar   61  TYR61      -0.0201
     28  CD1       21.9730   42.6210   64.8320 C.ar   61  TYR61      -0.0009
     29  CD2       21.2420   42.4560   62.5440 C.ar   61  TYR61      -0.0009
     30  CE1       22.5420   41.3760   64.7750 C.ar   61  TYR61       0.0417
     31  CE2       21.7990   41.1420   62.4560 C.ar   61  TYR61       0.0417
     32  CZ        22.4540   40.6260   63.5820 C.ar   61  TYR61       0.1957
     33  OH        23.0130   39.3730   63.5650 O.3    61  TYR61      -0.2866
     34  N         23.8240   47.7580   60.1890 N.3    64  ARG64      -0.1245
     35  CA        23.6450   46.8960   59.0100 C.3    64  ARG64       0.1563
     36  C         22.4280   47.2480   58.1620 C.2    64  ARG64       0.2260
     37  O         22.5320   47.3010   56.9380 O.2    64  ARG64      -0.2867
     38  CB        23.6340   45.4080   59.3950 C.3    64  ARG64       0.0307
     39  CG        24.9240   44.9690   60.1160 C.3    64  ARG64       0.0489
     40  CD        24.8860   43.5430   60.6500 C.3    64  ARG64       0.2205
     41  NE        25.0030   42.6010   59.5600 N.pl3  64  ARG64      -0.0865
     42  CZ        25.2070   41.2930   59.6870 C.cat  64  ARG64       0.5346
     43  NH1       25.3320   40.7120   60.8790 N.pl3  64  ARG64       0.1354
     44  NH2       25.2730   40.5490   58.5990 N.pl3  64  ARG64       0.1354
     45  N         21.3120   37.9560   53.8610 N.3   100  ILE100     -0.1245
     46  CA        20.1920   38.5200   54.6370 C.3   100  ILE100      0.1561
     47  C         19.8650   39.9130   54.1500 C.2   100  ILE100      0.2260
     48  O         19.0050   40.5950   54.7150 O.2   100  ILE100     -0.2867
     49  CB        20.5090   38.4900   56.1510 C.3   100  ILE100      0.0252
     50  CG1       21.7530   39.3120   56.4730 C.3   100  ILE100      0.0019
     51  CG2       20.7420   37.0050   56.6210 C.3   100  ILE100      0.0019
     52  CD1       22.0330   39.3920   58.0040 C.3   100  ILE100      0.0001
     53  N         19.0960   32.0760   55.8870 N.3   116  HIS116     -0.1241
     54  CA        19.6590   32.6990   57.0940 C.3   116  HIS116      0.1621
     55  C         18.7910   33.8450   57.6650 C.2   116  HIS116      0.2264
     56  O         19.2310   34.5670   58.5820 O.2   116  HIS116     -0.2867
     57  CB        21.1230   33.1270   56.9100 C.3   116  HIS116      0.0745
     58  CG        22.0820   31.9920   56.6790 C.ar  116  HIS116      0.0817
     59  ND1       23.2700   32.1590   55.9950 N.ar  116  HIS116     -0.2268
     60  CD2       21.9980   30.6730   56.9680 C.ar  116  HIS116      0.1154
     61  CE1       23.9120   31.0030   55.9370 C.ar  116  HIS116      0.1986
     62  NE2       23.1470   30.0800   56.5010 N.ar  116  HIS116     -0.2212
     63  N         19.4230   34.1560   61.3730 N.3   179  VAL179     -0.1231
     64  CA        20.0950   33.0540   62.0280 C.3   179  VAL179      0.1692
     65  C         21.4150   33.5740   62.6430 C.2   179  VAL179      0.2592
     66  O         22.3490   34.0310   61.9450 O.2   179  VAL179     -0.2718
     67  CB        20.3010   31.8620   61.0480 C.3   179  VAL179      0.0266
     68  CG1       21.0310   30.7390   61.7220 C.3   179  VAL179      0.0020
     69  CG2       18.9720   31.3680   60.5260 C.3   179  VAL179      0.0020
     70  N         21.4970   33.4840   63.9660 N.am  180  TRP180     -0.1962
     71  CA        22.6800   33.9350   64.6360 C.3   180  TRP180      0.1771
     72  C         23.6680   32.8030   64.7350 C.2   180  TRP180      0.2619
     73  O         23.2870   31.6370   64.6170 O.2   180  TRP180     -0.2715
     74  CB        22.3530   34.4550   66.0560 C.3   180  TRP180      0.0590
     75  CG        21.7950   35.8740   66.1440 C.ar  180  TRP180      0.0006
     76  CD1       22.0330   36.9150   65.2990 C.ar  180  TRP180      0.0946
     77  CD2       20.9490   36.3770   67.1760 C.ar  180  TRP180      0.0152
     78  NE1       21.3580   38.0340   65.7240 N.ar  180  TRP180     -0.2442
     79  CE2       20.7100   37.7370   66.8940 C.ar  180  TRP180      0.0810
     80  CE3       20.3770   35.8070   68.3270 C.ar  180  TRP180      0.0012
     81  CZ2       19.9060   38.5350   67.7080 C.ar  180  TRP180      0.0191
     82  CZ3       19.5760   36.6000   69.1350 C.ar  180  TRP180      0.0001
     83  CH2       19.3280   37.9420   68.8020 C.ar  180  TRP180      0.0015
     84  N         24.9430   33.1350   64.9870 N.am  181  PHE181     -0.1974
     85  CA        25.8740   32.1470   65.5980 C.3   181  PHE181      0.1639
     86  C         25.2600   31.4900   66.8560 C.2   181  PHE181      0.2290
     87  O         24.5820   32.1450   67.6370 O.2   181  PHE181     -0.2864
     88  CB        27.2020   32.7850   66.0390 C.3   181  PHE181      0.0560
     89  CG        28.0920   33.2110   64.8950 C.ar  181  PHE181     -0.0200
     90  CD1       28.9690   32.3090   64.2960 C.ar  181  PHE181     -0.0042
     91  CD2       28.0560   34.5460   64.4320 C.ar  181  PHE181     -0.0042
     92  CE1       29.8230   32.7070   63.2490 C.ar  181  PHE181     -0.0003
     93  CE2       28.8910   34.9620   63.3880 C.ar  181  PHE181     -0.0003
     94  CZ        29.7640   34.0530   62.7860 C.ar  181  PHE181     -0.0000
     95  N         22.9900   29.2770   66.7080 N.3   183  GLU183     -0.1231
     96  CA        21.6400   28.9010   66.2780 C.3   183  GLU183      0.1699
     97  C         21.7860   28.1270   64.9780 C.2   183  GLU183      0.2592
     98  O         22.8480   28.1950   64.3170 O.2   183  GLU183     -0.2718
     99  CB        20.7740   30.1350   66.0240 C.3   183  GLU183      0.0402
    100  CG        20.5690   31.0550   67.2360 C.3   183  GLU183      0.1161
    101  CD        19.5220   32.1240   66.9990 C.2   183  GLU183      0.3649
    102  OE1       19.4250   32.6690   65.8660 O.co2 183  GLU183     -0.2457
    103  OE2       18.7690   32.4300   67.9630 O.co2 183  GLU183     -0.2457
    104  N         20.7210   27.4250   64.5860 N.am  184  ASN184     -0.1960
    105  CA        20.7010   26.6920   63.3070 C.3   184  ASN184      0.1819
    106  C         19.5300   27.0730   62.4150 C.2   184  ASN184      0.2621
    107  O         18.6660   27.8460   62.8200 O.2   184  ASN184     -0.2715
    108  CB        20.7710   25.1930   63.5740 C.3   184  ASN184      0.1195
    109  CG        21.9730   24.8290   64.4530 C.2   184  ASN184      0.2630
    110  OD1       23.1250   24.9220   64.0090 O.2   184  ASN184     -0.2716
    111  ND2       21.7080   24.4360   65.7130 N.am  184  ASN184     -0.0877
    112  N         19.5350   26.5700   61.1900 N.am  185  LEU185     -0.1977
    113  CA        18.4550   26.8110   60.2480 C.3   185  LEU185      0.1596
    114  C         17.1140   26.3560   60.7850 C.2   185  LEU185      0.2287
    115  O         17.0440   25.3870   61.5260 O.2   185  LEU185     -0.2864
    116  CB        18.7530   26.1390   58.9110 C.3   185  LEU185      0.0297
    117  CG        19.5370   27.0850   57.9730 C.3   185  LEU185      0.0022
    118  CD1       20.8430   27.4270   58.6220 C.3   185  LEU185      0.0001
    119  CD2       19.7210   26.4270   56.5910 C.3   185  LEU185      0.0001
    120  N         30.8770   26.8640   54.7180 N.3   212  VAL212     -0.1231
    121  CA        29.9180   26.9360   55.8620 C.3   212  VAL212      0.1692
    122  C         28.6740   26.0070   55.6930 C.2   212  VAL212      0.2592
    123  O         27.8430   26.1600   54.7540 O.2   212  VAL212     -0.2718
    124  CB        29.4670   28.4340   56.1820 C.3   212  VAL212      0.0266
    125  CG1       28.5000   28.5050   57.3920 C.3   212  VAL212      0.0020
    126  CG2       30.6920   29.3410   56.4480 C.3   212  VAL212      0.0020
    127  N         28.5740   25.0330   56.6110 N.am  213  TYR213     -0.1963
    128  CA        27.4650   24.0820   56.6600 C.3   213  TYR213      0.1756
    129  C         26.1880   24.7070   57.2050 C.2   213  TYR213      0.2461
    130  O         26.2770   25.6610   57.9210 O.2   213  TYR213     -0.2730
    131  CB        27.8630   22.9280   57.5650 C.3   213  TYR213      0.0574
    132  CG        28.7520   21.9190   56.9020 C.ar  213  TYR213     -0.0198
    133  CD1       28.3360   20.5980   56.7580 C.ar  213  TYR213     -0.0009
    134  CD2       30.0370   22.2560   56.5040 C.ar  213  TYR213     -0.0009
    135  CE1       29.1370   19.6630   56.1790 C.ar  213  TYR213      0.0417
    136  CE2       30.8830   21.3110   55.9120 C.ar  213  TYR213      0.0417
    137  CZ        30.4140   20.0310   55.7400 C.ar  213  TYR213      0.1957
    138  OH        31.2440   19.1010   55.1750 O.3   213  TYR213     -0.2866
    139  N         25.0020   24.1780   56.8390 N.am  214  PRO214     -0.2727
    140  CA        24.7800   23.0370   55.9170 C.3   214  PRO214      0.1402
    141  C         24.8080   23.4170   54.4170 C.2   214  PRO214      0.2269
    142  O         24.9240   22.5330   53.5820 O.2   214  PRO214     -0.2865
    143  CB        23.3650   22.5920   56.2780 C.3   214  PRO214      0.0296
    144  CG        22.6510   23.8980   56.5750 C.3   214  PRO214      0.0237
    145  CD        23.7110   24.7590   57.2960 C.3   214  PRO214      0.0939
@<TRIPOS>BOND
     1   142   141    2
     2     1     2    1
     3    45    46    1
     4    47    46    1
     5    47    48    2
     6     3     2    1
     7     3     4    2
     8   141   140    1
     9     8    10   ar
    10     8     6   ar
    11    46    49    1
    12    10    11   ar
    13   120   121    1
    14   123   122    2
    15     2     5    1
    16   138   137    1
    17     5     6    1
    18     6     7   ar
    19   122   121    1
    20   122   127   am
    21   137   136   ar
    22   137   135   ar
    23    11     9   ar
    24   121   124    1
    25    53    54    1
    26   136   134   ar
    27   140   143    1
    28   140   139    1
    29    61    59   ar
    30    61    62   ar
    31    59    58   ar
    32    49    50    1
    33    49    51    1
    34   135   133   ar
    35   124   126    1
    36   124   125    1
    37   143   144    1
    38    50    52    1
    39    62    60   ar
    40   134   132   ar
    41   144   145    1
    42   119   117    1
    43   127   128    1
    44   128   129    1
    45   128   131    1
    46    58    57    1
    47    58    60   ar
    48     7     9   ar
    49   133   132   ar
    50   139   129   am
    51   139   145    1
    52   132   131    1
    53    57    54    1
    54    37    36    2
    55    54    55    1
    56   129   130    2
    57    55    56    2
    58   117   118    1
    59   117   116    1
    60    36    35    1
    61    44    42    1
    62   116   113    1
    63    35    38    1
    64    35    34    1
    65    38    39    1
    66    41    42    2
    67    41    40    1
    68    42    43    1
    69    39    40    1
    70   113   114    1
    71   113   112    1
    72    69    67    1
    73   114   115    2
    74    67    68    1
    75    67    64    1
    76   112   106   am
    77    63    64    1
    78    25    24    2
    79    66    65    2
    80    64    65    1
    81   106   107    2
    82   106   105    1
    83    31    29   ar
    84    31    32   ar
    85    29    27   ar
    86    65    70   am
    87    16    13    1
    88    24    23    1
    89    94    92   ar
    90    94    93   ar
    91    92    90   ar
    92   105   108    1
    93   105   104    1
    94    23    26    1
    95    23    22    1
    96    93    91   ar
    97    33    32    1
    98   108   109    1
    99    32    30   ar
   100    27    26    1
   101    27    28   ar
   102    70    71    1
   103   110   109    2
   104    13    12    1
   105    13    14    1
   106    90    89   ar
   107    98    97    2
   108    91    89   ar
   109   109   111   am
   110   104    97   am
   111    73    72    2
   112    71    72    1
   113    71    74    1
   114    72    84   am
   115    30    28   ar
   116    89    88    1
   117    97    96    1
   118    84    85    1
   119    21    18    1
   120    14    15    2
   121    76    78   ar
   122    76    75   ar
   123    85    88    1
   124    85    86    1
   125    78    79   ar
   126   102   101   ar
   127    99    96    1
   128    99   100    1
   129    74    75    1
   130    75    77   ar
   131    96    95    1
   132    18    17    1
   133    18    19    1
   134    20    19    2
   135    86    87    2
   136    79    77   ar
   137    79    81   ar
   138   101   100    1
   139   101   103   ar
   140    77    80   ar
   141    81    83   ar
   142    80    82   ar
   143    83    82   ar
