@<TRIPOS>MOLECULE
tmp/2b52A00.pdb
 191 182 0 0 0
SMALL
GASTEIGER

@<TRIPOS>ATOM
      1  N         92.2840   64.6960   14.5780 N.3     8  GLU8       -0.1245
      2  CA        91.4460   65.6920   13.9210 C.3     8  GLU8        0.1567
      3  C         90.1180   65.8420   14.6510 C.2     8  GLU8        0.2260
      4  O         89.7270   64.9790   15.4370 O.2     8  GLU8       -0.2867
      5  CB        91.1990   65.2440   12.4800 C.3     8  GLU8        0.0388
      6  CG        90.8810   66.3280   11.4830 C.3     8  GLU8        0.1160
      7  CD        90.8040   65.7800   10.0660 C.2     8  GLU8        0.3649
      8  OE1       89.7870   65.1450    9.7210 O.co2   8  GLU8       -0.2457
      9  OE2       91.7690   65.9690    9.3000 O.co2   8  GLU8       -0.2457
     10  N         86.4470   65.7850   13.9980 N.3    10  ILE10      -0.1231
     11  CA        85.3550   65.4540   13.0930 C.3    10  ILE10       0.1692
     12  C         84.1970   66.4210   13.2440 C.2    10  ILE10       0.2593
     13  O         83.5780   66.8070   12.2580 O.2    10  ILE10      -0.2718
     14  CB        84.8280   64.0410   13.3500 C.3    10  ILE10       0.0266
     15  CG1       85.8540   63.0070   12.8980 C.3    10  ILE10       0.0019
     16  CG2       83.5110   63.8490   12.6260 C.3    10  ILE10       0.0020
     17  CD1       85.4720   61.5800   13.2400 C.3    10  ILE10       0.0001
     18  N         83.8950   66.7980   14.4810 N.am   11  GLY11      -0.1942
     19  CA        82.8010   67.7220   14.7160 C.3    11  GLY11       0.2014
     20  C         81.9990   67.3930   15.9600 C.2    11  GLY11       0.2639
     21  O         82.0220   66.2580   16.4340 O.2    11  GLY11      -0.2714
     22  N         81.2820   68.3840   16.4830 N.am   12  GLU12      -0.1963
     23  CA        80.4710   68.2060   17.6810 C.3    12  GLU12       0.1733
     24  C         79.1930   67.4330   17.3850 C.2    12  GLU12       0.2617
     25  O         78.4300   67.7790   16.4820 O.2    12  GLU12      -0.2715
     26  CB        80.1100   69.5680   18.2850 C.3    12  GLU12       0.0429
     27  CG        79.0410   70.3390   17.5170 C.3    12  GLU12       0.1163
     28  CD        79.4790   70.7220   16.1110 C.2    12  GLU12       0.3649
     29  OE1       80.3820   71.5760   15.9940 O.co2  12  GLU12      -0.2457
     30  OE2       78.9280   70.1680   15.1290 O.co2  12  GLU12      -0.2457
     31  N         78.9630   66.3780   18.1530 N.am   13  GLY13      -0.1940
     32  CA        77.7710   65.5840   17.9510 C.3    13  GLY13       0.2014
     33  C         76.6240   66.1180   18.7810 C.2    13  GLY13       0.2639
     34  O         76.5400   67.3190   19.0430 O.2    13  GLY13      -0.2714
     35  N         75.7440   65.2150   19.2000 N.am   14  THR14      -0.1950
     36  CA        74.5820   65.5680   20.0090 C.3    14  THR14       0.1897
     37  C         74.8840   65.3430   21.4900 C.2    14  THR14       0.2313
     38  O         74.4070   66.0780   22.3600 O.2    14  THR14      -0.2863
     39  CB        73.3670   64.7020   19.6170 C.3    14  THR14       0.1794
     40  OG1       73.6380   63.3300   19.9340 O.3    14  THR14      -0.2208
     41  CG2       73.0780   64.8290   18.1140 C.3    14  THR14       0.0378
     42  N         83.2290   64.9020   18.5690 N.3    18  VAL18      -0.1245
     43  CA        83.7800   63.7350   17.8830 C.3    18  VAL18       0.1561
     44  C         85.0850   64.1100   17.1740 C.2    18  VAL18       0.2260
     45  O         85.1150   65.0090   16.3370 O.2    18  VAL18      -0.2867
     46  CB        82.7740   63.1740   16.8310 C.3    18  VAL18       0.0252
     47  CG1       83.3210   61.8980   16.2090 C.3    18  VAL18       0.0019
     48  CG2       81.4250   62.9150   17.4800 C.3    18  VAL18       0.0019
     49  N         86.8310   56.7770   15.6670 N.3    31  ALA31      -0.1245
     50  CA        86.0710   57.9980   15.9010 C.3    31  ALA31       0.1562
     51  C         85.9030   58.0760   17.4160 C.2    31  ALA31       0.2260
     52  O         85.1800   57.2840   18.0150 O.2    31  ALA31      -0.2867
     53  CB        84.7150   57.9360   15.2010 C.3    31  ALA31       0.0290
     54  N         84.5330   59.7920   20.6100 N.3    33  LYS33      -0.1245
     55  CA        83.5160   60.7160   21.0720 C.3    33  LYS33       0.1561
     56  C         83.6780   60.9860   22.5690 C.2    33  LYS33       0.2260
     57  O         83.5900   60.0730   23.3870 O.2    33  LYS33      -0.2867
     58  CB        82.1240   60.1510   20.7810 C.3    33  LYS33       0.0271
     59  CG        81.0270   61.1770   20.9360 C.3    33  LYS33       0.0035
     60  CD        79.6440   60.5860   20.7340 C.3    33  LYS33       0.0206
     61  CE        78.5810   61.6660   20.8820 C.3    33  LYS33       0.1093
     62  NZ        77.1970   61.1280   20.8690 N.3    33  LYS33      -0.1314
     63  N         77.1290   51.6880   13.0940 N.3    60  VAL60      -0.1245
     64  CA        78.5230   52.0290   13.3450 C.3    60  VAL60       0.1561
     65  C         78.9150   51.2820   14.5980 C.2    60  VAL60       0.2260
     66  O         78.3180   51.4830   15.6570 O.2    60  VAL60      -0.2867
     67  CB        78.7230   53.5460   13.5850 C.3    60  VAL60       0.0252
     68  CG1       80.1930   53.8510   13.8200 C.3    60  VAL60       0.0019
     69  CG2       78.2540   54.3300   12.3770 C.3    60  VAL60       0.0019
     70  N         84.3810   54.6200   18.4130 N.3    76  PHE76      -0.1227
     71  CA        83.6220   53.9820   17.3460 C.3    76  PHE76       0.1736
     72  C         84.5220   53.6790   16.1590 C.2    76  PHE76       0.2595
     73  O         85.6160   54.2290   16.0480 O.2    76  PHE76      -0.2718
     74  CB        82.5000   54.9130   16.8740 C.3    76  PHE76       0.0547
     75  CG        81.4390   55.1570   17.8970 C.ar   76  PHE76      -0.0202
     76  CD1       80.4660   54.2050   18.1440 C.ar   76  PHE76      -0.0042
     77  CD2       81.4150   56.3380   18.6210 C.ar   76  PHE76      -0.0042
     78  CE1       79.4740   54.4300   19.1050 C.ar   76  PHE76      -0.0003
     79  CE2       80.4320   56.5690   19.5800 C.ar   76  PHE76      -0.0003
     80  CZ        79.4600   55.6120   19.8220 C.ar   76  PHE76      -0.0000
     81  N         84.0650   52.7980   15.2740 N.am   77  GLU77      -0.1965
     82  CA        84.8330   52.5000   14.0790 C.3    77  GLU77       0.1733
     83  C         84.7510   53.7970   13.2800 C.2    77  GLU77       0.2616
     84  O         83.7940   54.5590   13.4200 O.2    77  GLU77      -0.2715
     85  CB        84.1890   51.3620   13.2940 C.3    77  GLU77       0.0429
     86  CG        82.8520   51.7250   12.6840 C.3    77  GLU77       0.1163
     87  CD        82.4050   50.7150   11.6580 C.2    77  GLU77       0.3649
     88  OE1       83.2150   50.3670   10.7750 O.co2  77  GLU77      -0.2457
     89  OE2       81.2480   50.2700   11.7340 O.co2  77  GLU77      -0.2457
     90  N         85.7470   54.0540   12.4470 N.am   78  PHE78      -0.1960
     91  CA        85.7630   55.2770   11.6700 C.3    78  PHE78       0.1771
     92  C         85.3370   55.1230   10.2040 C.2    78  PHE78       0.2619
     93  O         85.9530   54.3790    9.4460 O.2    78  PHE78      -0.2715
     94  CB        87.1570   55.8890   11.7650 C.3    78  PHE78       0.0574
     95  CG        87.3760   57.0400   10.8450 C.ar   78  PHE78      -0.0200
     96  CD1       87.7630   56.8280    9.5270 C.ar   78  PHE78      -0.0042
     97  CD2       87.2020   58.3430   11.2930 C.ar   78  PHE78      -0.0042
     98  CE1       87.9790   57.9040    8.6690 C.ar   78  PHE78      -0.0003
     99  CE2       87.4130   59.4310   10.4490 C.ar   78  PHE78      -0.0003
    100  CZ        87.8040   59.2130    9.1320 C.ar   78  PHE78      -0.0000
    101  N         84.2690   55.8140    9.8110 N.am   79  LEU79      -0.1963
    102  CA        83.8150   55.7620    8.4270 C.3    79  LEU79       0.1728
    103  C         84.3090   57.0360    7.7410 C.2    79  LEU79       0.2616
    104  O         84.5940   58.0280    8.4040 O.2    79  LEU79      -0.2715
    105  CB        82.2890   55.6440    8.3540 C.3    79  LEU79       0.0311
    106  CG        81.7630   54.2390    8.6700 C.3    79  LEU79       0.0022
    107  CD1       81.5280   54.0890   10.1660 C.3    79  LEU79       0.0001
    108  CD2       80.4800   54.0020    7.9210 C.3    79  LEU79       0.0001
    109  N         84.4110   57.0320    6.4180 N.am   80  HIS80      -0.1959
    110  CA        84.9430   58.2120    5.7540 C.3    80  HIS80       0.1787
    111  C         84.0440   59.3990    5.4370 C.2    80  HIS80       0.2620
    112  O         84.5500   60.4660    5.0910 O.2    80  HIS80      -0.2715
    113  CB        85.6970   57.8000    4.4880 C.3    80  HIS80       0.0785
    114  CG        87.1590   57.5500    4.7140 C.ar   80  HIS80       0.0821
    115  ND1       87.6260   56.5190    5.5040 N.ar   80  HIS80      -0.2267
    116  CD2       88.2550   58.2150    4.2740 C.ar   80  HIS80       0.1154
    117  CE1       88.9460   56.5620    5.5400 C.ar   80  HIS80       0.1986
    118  NE2       89.3530   57.5820    4.8030 N.ar   80  HIS80      -0.2212
    119  N         82.7300   59.2500    5.5600 N.am   81  GLN81      -0.1963
    120  CA        81.8620   60.3740    5.2470 C.3    81  GLN81       0.1733
    121  C         80.4250   60.2010    5.7230 C.2    81  GLN81       0.2616
    122  O         79.9640   59.0810    5.9480 O.2    81  GLN81      -0.2715
    123  CB        81.8850   60.6130    3.7350 C.3    81  GLN81       0.0408
    124  CG        81.1360   61.8390    3.2720 C.3    81  GLN81       0.0908
    125  CD        81.2660   62.0550    1.7820 C.2    81  GLN81       0.2608
    126  OE1       82.3640   62.2350    1.2620 O.2    81  GLN81      -0.2717
    127  NE2       80.1440   62.0350    1.0840 N.am   81  GLN81      -0.0878
    128  N         79.7260   61.3240    5.8770 N.am   82  ASP82      -0.1971
    129  CA        78.3310   61.3060    6.2990 C.3    82  ASP82       0.1709
    130  C         77.4330   61.5790    5.0890 C.2    82  ASP82       0.2293
    131  O         77.8820   62.1430    4.0900 O.2    82  ASP82      -0.2864
    132  CB        78.0870   62.3310    7.4220 C.3    82  ASP82       0.1436
    133  CG        78.1460   63.7770    6.9410 C.2    82  ASP82       0.3671
    134  OD1       77.2010   64.2110    6.2540 O.co2  82  ASP82      -0.2456
    135  OD2       79.1320   64.4780    7.2540 O.co2  82  ASP82      -0.2456
    136  N         76.9290   65.3140    3.8430 N.3    85  LYS85      -0.1245
    137  CA        78.0400   65.7240    3.0050 C.3    85  LYS85       0.1561
    138  C         77.9070   65.1230    1.6170 C.2    85  LYS85       0.2260
    139  O         78.0360   65.8250    0.6210 O.2    85  LYS85      -0.2867
    140  CB        79.3530   65.2730    3.6340 C.3    85  LYS85       0.0271
    141  CG        79.9650   66.2710    4.5810 C.3    85  LYS85       0.0035
    142  CD        80.9070   67.2080    3.8320 C.3    85  LYS85       0.0206
    143  CE        81.9380   66.4160    2.9810 C.3    85  LYS85       0.1093
    144  NZ        82.6260   65.2830    3.7030 N.3    85  LYS85      -0.1314
    145  N         69.1020   61.4570   11.1540 N.3   125  LYS125     -0.1245
    146  CA        69.2630   62.5610   10.2400 C.3   125  LYS125      0.1561
    147  C         70.4710   62.2870    9.3670 C.2   125  LYS125      0.2260
    148  O         71.3120   61.4500    9.7080 O.2   125  LYS125     -0.2867
    149  CB        69.3830   63.8920   11.0090 C.3   125  LYS125      0.0271
    150  CG        70.4580   63.9370   12.0610 C.3   125  LYS125      0.0035
    151  CD        70.3210   65.1720   12.9360 C.3   125  LYS125      0.0206
    152  CE        71.4120   65.2010   13.9990 C.3   125  LYS125      0.1093
    153  NZ        71.1390   66.2210   15.0510 N.3   125  LYS125     -0.1314
    154  N         73.2770   63.7270    8.8450 N.3   127  GLN127     -0.1231
    155  CA        74.5570   63.8080    9.5560 C.3   127  GLN127      0.1698
    156  C         74.8480   62.6200   10.4840 C.2   127  GLN127      0.2592
    157  O         75.9890   62.4120   10.8750 O.2   127  GLN127     -0.2718
    158  CB        74.6420   65.1060   10.3620 C.3   127  GLN127      0.0381
    159  CG        74.1940   66.3290    9.5840 C.3   127  GLN127      0.0905
    160  CD        72.7180   66.6350    9.7830 C.2   127  GLN127      0.2608
    161  OE1       72.3430   67.2990   10.7540 O.2   127  GLN127     -0.2717
    162  NE2       71.8730   66.1440    8.8780 N.am  127  GLN127     -0.0878
    163  N         73.8240   61.8510   10.8360 N.am  128  ASN128     -0.1974
    164  CA        74.0050   60.6880   11.6990 C.3   128  ASN128      0.1688
    165  C         74.1530   59.4230   10.8850 C.2   128  ASN128      0.2292
    166  O         74.2160   58.3350   11.4420 O.2   128  ASN128     -0.2864
    167  CB        72.7990   60.4830   12.6150 C.3   128  ASN128      0.1181
    168  CG        72.7700   61.4470   13.7520 C.2   128  ASN128      0.2629
    169  OD1       73.8050   61.7840   14.3270 O.2   128  ASN128     -0.2716
    170  ND2       71.5770   61.8880   14.1080 N.am  128  ASN128     -0.0877
    171  N         76.4250   57.3450    8.3810 N.3   130  LEU130     -0.1245
    172  CA        77.7850   57.2150    7.8690 C.3   130  LEU130      0.1561
    173  C         77.9230   56.2560    6.6960 C.2   130  LEU130      0.2260
    174  O         77.2870   55.2040    6.6640 O.2   130  LEU130     -0.2867
    175  CB        78.7040   56.7860    9.0050 C.3   130  LEU130      0.0270
    176  CG        78.5230   57.6860   10.2340 C.3   130  LEU130      0.0019
    177  CD1       79.4390   57.2320   11.3340 C.3   130  LEU130      0.0001
    178  CD2       78.7970   59.1460    9.8690 C.3   130  LEU130      0.0001
    179  N         74.3320   55.9700   13.2080 N.3   140  ALA140     -0.1231
    180  CA        75.2630   56.4100   14.2250 C.3   140  ALA140      0.1694
    181  C         74.6260   57.4570   15.1250 C.2   140  ALA140      0.2592
    182  O         73.5300   57.9610   14.8480 O.2   140  ALA140     -0.2718
    183  CB        76.5270   56.9750   13.5710 C.3   140  ALA140      0.0304
    184  N         75.3250   57.7640   16.2130 N.am  141  ASP141     -0.1974
    185  CA        74.8990   58.7630   17.1850 C.3   141  ASP141      0.1709
    186  C         73.4870   58.5290   17.7150 C.2   141  ASP141      0.2293
    187  O         72.6860   59.4550   17.7940 O.2   141  ASP141     -0.2864
    188  CB        75.0100   60.1570   16.5600 C.3   141  ASP141      0.1436
    189  CG        74.8960   61.2660   17.5850 C.2   141  ASP141      0.3671
    190  OD1       75.1980   61.0130   18.7740 O.co2 141  ASP141     -0.2456
    191  OD2       74.5220   62.3940   17.2000 O.co2 141  ASP141     -0.2456
@<TRIPOS>BOND
     1   139   138    2
     2   127   125   am
     3   126   125    2
     4   138   137    1
     5   125   124    1
     6   143   144    1
     7   143   142    1
     8   137   140    1
     9   137   136    1
    10   124   123    1
    11   140   141    1
    12   123   120    1
    13   142   141    1
    14   131   130    2
    15   116   114   ar
    16   116   118   ar
    17   113   114    1
    18   113   110    1
    19   114   115   ar
    20   118   117   ar
    21   130   129    1
    22   112   111    2
    23   120   119    1
    24   120   121    1
    25   111   119   am
    26   111   110    1
    27   115   117   ar
    28   121   128   am
    29   121   122    2
    30   110   109    1
    31   128   129    1
    32   134   133   ar
    33   129   132    1
    34   109   103   am
    35   174   173    2
    36   173   172    1
    37   133   135   ar
    38   133   132    1
    39   103   104    2
    40   103   102    1
    41   172   171    1
    42   172   175    1
    43   108   106    1
    44   105   102    1
    45   105   106    1
    46   102   101    1
    47    98   100   ar
    48    98    96   ar
    49   106   107    1
    50   154   155    1
    51   162   160   am
    52   175   176    1
    53   100    99   ar
    54     9     7   ar
    55   147   148    2
    56   147   146    1
    57    93    92    2
    58    96    95   ar
    59   155   158    1
    60   155   156    1
    61   159   160    1
    62   159   158    1
    63     8     7   ar
    64   160   161    2
    65   101    92   am
    66   178   176    1
    67     7     6    1
    68    92    91    1
    69   176   177    1
    70   146   149    1
    71   146   145    1
    72    99    97   ar
    73   156   163   am
    74   156   157    2
    75    88    87   ar
    76   163   164    1
    77    95    97   ar
    78    95    94    1
    79   165   166    2
    80   165   164    1
    81   149   150    1
    82     6     5    1
    83    87    89   ar
    84    87    86    1
    85    91    94    1
    86    91    90    1
    87   164   167    1
    88   150   151    1
    89    13    12    2
    90    69    67    1
    91    90    83   am
    92     5     2    1
    93   167   168    1
    94    16    14    1
    95    86    85    1
    96    15    17    1
    97    15    14    1
    98   151   152    1
    99    11    12    1
   100    11    14    1
   101    11    10    1
   102    63    64    1
   103   179   180    1
   104    12    18   am
   105    83    84    2
   106    83    82    1
   107    85    82    1
   108    64    67    1
   109    64    65    1
   110   183   180    1
   111    67    68    1
   112   168   170   am
   113   168   169    2
   114     2     1    1
   115     2     3    1
   116   152   153    1
   117    82    81    1
   118   180   181    1
   119    18    19    1
   120    65    66    2
   121     3     4    2
   122    19    20    1
   123   182   181    2
   124   181   184   am
   125    30    28   ar
   126    53    50    1
   127    81    72   am
   128    49    50    1
   129    50    51    1
   130    20    21    2
   131    20    22   am
   132    29    28   ar
   133    73    72    2
   134    28    27    1
   135    72    71    1
   136    47    46    1
   137   184   185    1
   138    45    44    2
   139    25    24    2
   140    22    23    1
   141   188   185    1
   142   188   189    1
   143    46    48    1
   144    46    43    1
   145    74    71    1
   146    74    75    1
   147    44    43    1
   148   185   186    1
   149   191   189   ar
   150    71    70    1
   151    24    23    1
   152    24    31   am
   153    51    52    2
   154    27    26    1
   155   189   190   ar
   156    23    26    1
   157   186   187    2
   158    43    42    1
   159    75    76   ar
   160    75    77   ar
   161    32    31    1
   162    32    33    1
   163    41    39    1
   164    76    78   ar
   165    77    79   ar
   166    33    34    2
   167    33    35   am
   168    78    80   ar
   169    35    36    1
   170    79    80   ar
   171    39    40    1
   172    39    36    1
   173    36    37    1
   174    54    55    1
   175    60    61    1
   176    60    59    1
   177    58    59    1
   178    58    55    1
   179    62    61    1
   180    55    56    1
   181    37    38    2
   182    56    57    2
