@<TRIPOS>MOLECULE
tmp/2b53A00.pdb
 191 182 0 0 0
SMALL
GASTEIGER

@<TRIPOS>ATOM
      1  N         82.8420   76.4720   53.9400 N.3     8  GLU8       -0.1245
      2  CA        83.9680   75.7100   54.4870 C.3     8  GLU8        0.1567
      3  C         84.0810   74.3670   53.7650 C.2     8  GLU8        0.2260
      4  O         83.0690   73.7450   53.4340 O.2     8  GLU8       -0.2867
      5  CB        83.7270   75.4810   55.9810 C.3     8  GLU8        0.0388
      6  CG        84.8230   74.6800   56.6680 C.3     8  GLU8        0.1160
      7  CD        84.2740   74.0010   57.9120 C.2     8  GLU8        0.3649
      8  OE1       83.2180   74.4280   58.3990 O.co2   8  GLU8       -0.2457
      9  OE2       84.9150   73.0490   58.4030 O.co2   8  GLU8       -0.2457
     10  N         84.5190   70.5380   54.0330 N.3    10  ILE10      -0.1231
     11  CA        84.3090   69.6940   55.1890 C.3    10  ILE10       0.1692
     12  C         84.5910   68.2470   54.8170 C.2    10  ILE10       0.2593
     13  O         84.1910   67.3260   55.5270 O.2    10  ILE10      -0.2718
     14  CB        82.8540   69.8340   55.6880 C.3    10  ILE10       0.0266
     15  CG1       81.7980   69.4710   54.6400 C.3    10  ILE10       0.0019
     16  CG2       82.6570   71.2710   56.1470 C.3    10  ILE10       0.0020
     17  CD1       80.3410   69.6470   55.1280 C.3    10  ILE10       0.0001
     18  N         85.2970   68.1060   53.6790 N.am   11  GLY11      -0.1942
     19  CA        85.7170   66.7270   53.4610 C.3    11  GLY11       0.2014
     20  C         86.0360   66.3150   52.0380 C.2    11  GLY11       0.2639
     21  O         85.7240   67.0300   51.0860 O.2    11  GLY11      -0.2714
     22  N         86.6530   65.0990   51.9890 N.am   12  GLU12      -0.1963
     23  CA        87.0020   64.3460   50.7810 C.3    12  GLU12       0.1733
     24  C         86.0410   63.1660   50.7370 C.2    12  GLU12       0.2617
     25  O         86.0620   62.3170   51.6270 O.2    12  GLU12      -0.2715
     26  CB        88.4400   63.8200   50.8520 C.3    12  GLU12       0.0429
     27  CG        89.5070   64.8880   51.0560 C.3    12  GLU12       0.1163
     28  CD        89.6180   65.9030   49.9340 C.2    12  GLU12       0.3649
     29  OE1       89.0930   67.0090   50.0870 O.co2  12  GLU12      -0.2457
     30  OE2       90.2160   65.5790   48.9050 O.co2  12  GLU12      -0.2457
     31  N         85.2020   63.1450   49.6750 N.am   13  GLY13      -0.1940
     32  CA        84.3180   61.9870   49.5150 C.3    13  GLY13       0.2014
     33  C         85.0850   60.9560   48.7190 C.2    13  GLY13       0.2639
     34  O         86.2950   61.1100   48.5510 O.2    13  GLY13      -0.2714
     35  N         84.3440   59.9130   48.2710 N.am   14  THR14      -0.1950
     36  CA        84.9470   58.9100   47.3800 C.3    14  THR14       0.1897
     37  C         84.9030   59.4110   45.9380 C.2    14  THR14       0.2313
     38  O         85.7510   59.0540   45.1200 O.2    14  THR14      -0.2863
     39  CB        84.1730   57.5770   47.4800 C.3    14  THR14       0.1794
     40  OG1       84.1640   57.0960   48.8350 O.3    14  THR14      -0.2208
     41  CG2       84.8320   56.5430   46.5780 C.3    14  THR14       0.0378
     42  N         83.3360   67.8650   49.4680 N.3    18  VAL18      -0.1245
     43  CA        82.1490   68.3500   50.0910 C.3    18  VAL18       0.1561
     44  C         82.4880   69.6820   50.7450 C.2    18  VAL18       0.2260
     45  O         83.4080   69.7680   51.5600 O.2    18  VAL18      -0.2867
     46  CB        81.6980   67.3460   51.1470 C.3    18  VAL18       0.0252
     47  CG1       80.4150   67.8090   51.8400 C.3    18  VAL18       0.0019
     48  CG2       81.4950   66.0180   50.4200 C.3    18  VAL18       0.0019
     49  N         75.1040   70.8730   52.5120 N.3    31  ALA31      -0.1245
     50  CA        76.3590   70.2340   52.2090 C.3    31  ALA31       0.1562
     51  C         76.4080   70.0740   50.6950 C.2    31  ALA31       0.2260
     52  O         75.5020   69.5020   50.0820 O.2    31  ALA31      -0.2867
     53  CB        76.4650   68.8560   52.8820 C.3    31  ALA31       0.0290
     54  N         78.0720   68.5220   47.6180 N.3    33  LYS33      -0.1245
     55  CA        79.0760   67.6240   47.0050 C.3    33  LYS33       0.1561
     56  C         79.3340   67.8840   45.5220 C.2    33  LYS33       0.2260
     57  O         78.4040   68.0610   44.7380 O.2    33  LYS33      -0.2867
     58  CB        78.6460   66.1610   47.2130 C.3    33  LYS33       0.0271
     59  CG        79.6720   65.1280   46.7480 C.3    33  LYS33       0.0035
     60  CD        79.4730   63.7840   47.4400 C.3    33  LYS33       0.0206
     61  CE        80.6530   62.8210   47.2820 C.3    33  LYS33       0.1093
     62  NZ        80.5640   61.5910   48.1100 N.3    33  LYS33      -0.1314
     63  N         70.1340   60.8460   54.7070 N.3    60  VAL60      -0.1245
     64  CA        70.2140   62.3050   54.7580 C.3    60  VAL60       0.1561
     65  C         69.5370   62.8420   53.4900 C.2    60  VAL60       0.2260
     66  O         69.6920   62.2880   52.3910 O.2    60  VAL60      -0.2867
     67  CB        71.6730   62.8680   54.8110 C.3    60  VAL60       0.0252
     68  CG1       72.3170   62.1160   55.9560 C.3    60  VAL60       0.0019
     69  CG2       72.5070   62.7010   53.5460 C.3    60  VAL60       0.0019
     70  N         72.9070   68.5700   49.7430 N.3    76  PHE76      -0.1227
     71  CA        72.3080   67.7390   50.7790 C.3    76  PHE76       0.1736
     72  C         72.0130   68.6090   51.9950 C.2    76  PHE76       0.2595
     73  O         72.6540   69.6440   52.1900 O.2    76  PHE76      -0.2718
     74  CB        73.2700   66.6130   51.1740 C.3    76  PHE76       0.0547
     75  CG        73.5700   65.5300   50.1450 C.ar   76  PHE76      -0.0202
     76  CD1       72.6690   64.3780   50.0540 C.ar   76  PHE76      -0.0042
     77  CD2       74.7780   65.6550   49.3230 C.ar   76  PHE76      -0.0042
     78  CE1       72.9740   63.3570   49.0690 C.ar   76  PHE76      -0.0003
     79  CE2       75.1300   64.5670   48.4180 C.ar   76  PHE76      -0.0003
     80  CZ        74.2100   63.4440   48.2940 C.ar   76  PHE76      -0.0000
     81  N         71.0220   68.1350   52.8060 N.am   77  GLU77      -0.1965
     82  CA        70.9960   68.7650   54.1260 C.3    77  GLU77       0.1733
     83  C         72.3450   68.6440   54.8300 C.2    77  GLU77       0.2616
     84  O         73.1230   67.7280   54.5500 O.2    77  GLU77      -0.2715
     85  CB        69.9160   68.1220   55.0010 C.3    77  GLU77       0.0429
     86  CG        70.1620   66.6560   55.2950 C.3    77  GLU77       0.1163
     87  CD        69.2100   66.1960   56.3760 C.2    77  GLU77       0.3649
     88  OE1       68.6250   65.1200   56.2270 O.co2  77  GLU77      -0.2457
     89  OE2       69.0750   66.9110   57.3730 O.co2  77  GLU77      -0.2457
     90  N         72.5590   69.6150   55.7600 N.am   78  PHE78      -0.1960
     91  CA        73.7820   69.6400   56.5450 C.3    78  PHE78       0.1771
     92  C         73.6940   69.0020   57.9380 C.2    78  PHE78       0.2619
     93  O         72.8330   69.3540   58.7420 O.2    78  PHE78      -0.2715
     94  CB        74.1940   71.1090   56.6400 C.3    78  PHE78       0.0574
     95  CG        75.5160   71.2880   57.3410 C.ar   78  PHE78      -0.0200
     96  CD1       76.7790   70.9550   56.6690 C.ar   78  PHE78      -0.0042
     97  CD2       75.4640   71.8270   58.6950 C.ar   78  PHE78      -0.0042
     98  CE1       78.0270   71.2110   57.3780 C.ar   78  PHE78      -0.0003
     99  CE2       76.7150   72.0890   59.3900 C.ar   78  PHE78      -0.0003
    100  CZ        77.9670   71.7820   58.7140 C.ar   78  PHE78      -0.0000
    101  N         74.5970   68.0520   58.2260 N.am   79  LEU79      -0.1963
    102  CA        74.7130   67.3790   59.5610 C.3    79  LEU79       0.1728
    103  C         76.0800   67.7950   60.1210 C.2    79  LEU79       0.2616
    104  O         77.0580   67.9050   59.3750 O.2    79  LEU79      -0.2715
    105  CB        74.6710   65.8500   59.3840 C.3    79  LEU79       0.0311
    106  CG        73.3830   65.0570   59.0920 C.3    79  LEU79       0.0022
    107  CD1       72.5520   64.9410   60.3600 C.3    79  LEU79       0.0001
    108  CD2       72.5880   65.7270   57.9850 C.3    79  LEU79       0.0001
    109  N         76.1640   68.0170   61.4630 N.am   80  HIS80      -0.1959
    110  CA        77.4660   68.4950   61.9770 C.3    80  HIS80       0.1787
    111  C         78.6380   67.5330   62.1610 C.2    80  HIS80       0.2620
    112  O         79.7780   67.9690   62.3090 O.2    80  HIS80      -0.2715
    113  CB        77.2090   69.2280   63.3000 C.3    80  HIS80       0.0785
    114  CG        76.5500   70.6140   63.1530 C.ar   80  HIS80       0.0821
    115  ND1       77.2530   71.7690   63.3570 N.ar   80  HIS80      -0.2267
    116  CD2       75.2370   70.9710   62.7800 C.ar   80  HIS80       0.1154
    117  CE1       76.4090   72.8320   63.1150 C.ar   80  HIS80       0.1986
    118  NE2       75.1680   72.3380   62.7580 N.ar   80  HIS80      -0.2212
    119  N         78.4260   66.2050   62.1570 N.am   81  GLN81      -0.1963
    120  CA        79.5880   65.3010   62.3530 C.3    81  GLN81       0.1733
    121  C         79.2090   63.8990   61.9140 C.2    81  GLN81       0.2616
    122  O         78.0280   63.5940   61.7620 O.2    81  GLN81      -0.2715
    123  CB        79.9910   65.2770   63.8300 C.3    81  GLN81       0.0408
    124  CG        81.1830   64.3890   64.1450 C.3    81  GLN81       0.0908
    125  CD        81.3430   64.3690   65.6530 C.2    81  GLN81       0.2608
    126  OE1       80.3750   64.2590   66.4100 O.2    81  GLN81      -0.2717
    127  NE2       82.6320   64.4600   66.0540 N.am   81  GLN81      -0.0878
    128  N         80.2900   63.0910   61.7430 N.am   82  ASP82      -0.1971
    129  CA        80.1090   61.6580   61.4500 C.3    82  ASP82       0.1709
    130  C         80.4650   60.7050   62.5880 C.2    82  ASP82       0.2293
    131  O         81.0150   61.1160   63.6100 O.2    82  ASP82      -0.2864
    132  CB        80.9340   61.2970   60.2150 C.3    82  ASP82       0.1436
    133  CG        82.4250   61.3570   60.4670 C.2    82  ASP82       0.3671
    134  OD1       82.8300   61.2570   61.6210 O.co2  82  ASP82      -0.2456
    135  OD2       83.1790   61.4790   59.5020 O.co2  82  ASP82      -0.2456
    136  N         84.3660   60.2330   63.8150 N.3    85  LYS85      -0.1245
    137  CA        84.8460   61.2370   64.7950 C.3    85  LYS85       0.1561
    138  C         84.1980   61.1660   66.1700 C.2    85  LYS85       0.2260
    139  O         84.8710   61.3420   67.1860 O.2    85  LYS85      -0.2867
    140  CB        84.6440   62.6410   64.2130 C.3    85  LYS85       0.0271
    141  CG        85.6010   62.9950   63.0840 C.3    85  LYS85       0.0035
    142  CD        85.6760   62.0200   61.9150 C.3    85  LYS85       0.0206
    143  CE        86.6250   62.4520   60.8080 C.3    85  LYS85       0.1093
    144  NZ        86.5170   61.4810   59.7010 N.3    85  LYS85      -0.1314
    145  N         79.9410   52.5320   56.2390 N.3   125  LYS125     -0.1245
    146  CA        81.1370   52.6980   57.1110 C.3   125  LYS125      0.1561
    147  C         80.9520   53.9230   57.9950 C.2   125  LYS125      0.2260
    148  O         80.1600   54.7990   57.6740 O.2   125  LYS125     -0.2867
    149  CB        82.3890   52.8630   56.2520 C.3   125  LYS125      0.0271
    150  CG        82.3130   54.0220   55.2960 C.3   125  LYS125      0.0035
    151  CD        83.3420   53.8230   54.2170 C.3   125  LYS125      0.0206
    152  CE        83.0380   54.8620   53.1710 C.3   125  LYS125      0.1093
    153  NZ        84.0560   54.7140   52.1270 N.3   125  LYS125     -0.1314
    154  N         82.2560   56.7210   58.5970 N.3   127  GLN127     -0.1231
    155  CA        82.2870   58.0910   58.1510 C.3   127  GLN127      0.1698
    156  C         81.1530   58.4780   57.2010 C.2   127  GLN127      0.2592
    157  O         80.9500   59.6590   56.9300 O.2   127  GLN127     -0.2718
    158  CB        83.6600   58.3530   57.5140 C.3   127  GLN127      0.0381
    159  CG        84.1830   57.2410   56.6210 C.3   127  GLN127      0.0905
    160  CD        84.8380   56.1640   57.4860 C.2   127  GLN127      0.2608
    161  OE1       84.3270   55.1040   57.8610 O.2   127  GLN127     -0.2717
    162  NE2       86.0830   56.5310   57.8290 N.am  127  GLN127     -0.0878
    163  N         80.3670   57.4970   56.7020 N.am  128  ASN128     -0.1974
    164  CA        79.1240   58.0380   56.0990 C.3   128  ASN128      0.1688
    165  C         77.8280   57.7420   56.8560 C.2   128  ASN128      0.2292
    166  O         76.7420   57.6970   56.2780 O.2   128  ASN128     -0.2864
    167  CB        79.0180   57.5470   54.6440 C.3   128  ASN128      0.1181
    168  CG        79.0030   56.0300   54.5250 C.2   128  ASN128      0.2629
    169  OD1       79.6430   55.4970   53.6150 O.2   128  ASN128     -0.2716
    170  ND2       78.2640   55.3420   55.4080 N.am  128  ASN128     -0.0877
    171  N         76.0520   59.9910   59.6580 N.3   130  LEU130     -0.1245
    172  CA        76.0750   61.4340   60.0710 C.3   130  LEU130      0.1561
    173  C         75.1100   61.6910   61.2220 C.2   130  LEU130      0.2260
    174  O         73.9840   61.1970   61.2160 O.2   130  LEU130     -0.2867
    175  CB        75.6860   62.2650   58.8440 C.3   130  LEU130      0.0270
    176  CG        76.8120   62.7630   57.9310 C.3   130  LEU130      0.0019
    177  CD1       78.0190   61.8510   57.8450 C.3   130  LEU130      0.0001
    178  CD2       76.1660   62.9450   56.5780 C.3   130  LEU130      0.0001
    179  N         74.4020   58.4420   54.7480 N.3   140  ALA140     -0.1231
    180  CA        74.8140   59.2920   53.6130 C.3   140  ALA140      0.1694
    181  C         75.4110   58.4320   52.5070 C.2   140  ALA140      0.2592
    182  O         75.8520   57.3220   52.7700 O.2   140  ALA140     -0.2718
    183  CB        75.8850   60.2880   54.0200 C.3   140  ALA140      0.0304
    184  N         75.4370   58.9690   51.2410 N.am  141  ASP141     -0.1974
    185  CA        75.9110   58.3140   49.9850 C.3   141  ASP141      0.1709
    186  C         75.1100   57.0890   49.5290 C.2   141  ASP141      0.2293
    187  O         75.6180   56.2350   48.8040 O.2   141  ASP141     -0.2864
    188  CB        77.3950   57.8970   50.1370 C.3   141  ASP141      0.1436
    189  CG        78.3350   59.1090   50.0810 C.2   141  ASP141      0.3671
    190  OD1       77.8710   60.2290   49.9040 O.co2 141  ASP141     -0.2456
    191  OD2       79.5540   58.9060   50.2080 O.co2 141  ASP141     -0.2456
@<TRIPOS>BOND
     1    57    56    2
     2    38    37    2
     3    56    55    1
     4    37    36    1
     5    41    39    1
     6    59    58    1
     7    59    60    1
     8    55    58    1
     9    55    54    1
    10    61    60    1
    11    61    62    1
    12    36    39    1
    13    36    35    1
    14    39    40    1
    15    35    33   am
    16    80    79   ar
    17    80    78   ar
    18    79    77   ar
    19    34    33    2
    20    33    32    1
    21   187   186    2
    22    30    28   ar
    23    78    76   ar
    24    77    75   ar
    25    42    43    1
    26    32    31    1
    27   186   185    1
    28    31    24   am
    29    70    71    1
    30   190   189   ar
    31    28    29   ar
    32    28    27    1
    33   185   188    1
    34   185   184    1
    35    76    75   ar
    36   189   188    1
    37   189   191   ar
    38    52    51    2
    39    43    44    1
    40    43    46    1
    41    75    74    1
    42    48    46    1
    43    51    50    1
    44    24    23    1
    45    24    25    2
    46    44    45    2
    47    71    74    1
    48    71    72    1
    49    23    26    1
    50    23    22    1
    51    26    27    1
    52    21    20    2
    53    46    47    1
    54   184   181   am
    55    22    20   am
    56    72    73    2
    57    72    81   am
    58    20    19    1
    59   153   152    1
    60    50    49    1
    61    50    53    1
    62    66    65    2
    63   181   182    2
    64   181   180    1
    65    81    82    1
    66   152   151    1
    67     4     3    2
    68    19    18    1
    69    65    64    1
    70    69    67    1
    71   180   183    1
    72   180   179    1
    73   169   168    2
    74    18    12   am
    75     3     2    1
    76     1     2    1
    77    10    11    1
    78    82    83    1
    79    82    85    1
    80   151   150    1
    81     2     5    1
    82   168   167    1
    83   168   170   am
    84    84    83    2
    85    15    17    1
    86    15    14    1
    87   167   164    1
    88    63    64    1
    89    64    67    1
    90    67    68    1
    91    12    11    1
    92    12    13    2
    93    83    90   am
    94    85    86    1
    95    11    14    1
    96    86    87    1
    97   150   149    1
    98    14    16    1
    99    90    91    1
   100     5     6    1
   101   164   163    1
   102   164   165    1
   103    88    87   ar
   104   145   146    1
   105   149   146    1
   106   166   165    2
   107    87    89   ar
   108    91    94    1
   109    91    92    1
   110   178   176    1
   111   159   160    1
   112   159   158    1
   113    94    95    1
   114     6     7    1
   115    96    95   ar
   116    96    98   ar
   117   163   156   am
   118   157   156    2
   119   146   147    1
   120   156   155    1
   121    95    97   ar
   122    98   100   ar
   123   160   162   am
   124   160   161    2
   125   158   155    1
   126   148   147    2
   127   177   176    1
   128     7     8   ar
   129     7     9   ar
   130   176   175    1
   131    92   101   am
   132    92    93    2
   133   108   106    1
   134   155   154    1
   135   101   102    1
   136    97    99   ar
   137   100    99   ar
   138   175   172    1
   139   106   105    1
   140   106   107    1
   141   104   103    2
   142   105   102    1
   143   135   133   ar
   144   102   103    1
   145   171   172    1
   146   144   143    1
   147   172   173    1
   148   103   109   am
   149   132   133    1
   150   132   129    1
   151   133   134   ar
   152   143   142    1
   153   174   173    2
   154   129   128    1
   155   129   130    1
   156   109   110    1
   157   128   121   am
   158   122   121    2
   159   121   120    1
   160   142   141    1
   161   110   111    1
   162   110   113    1
   163   119   111   am
   164   119   120    1
   165   111   112    2
   166   120   123    1
   167   130   131    2
   168   118   116   ar
   169   118   117   ar
   170   116   114   ar
   171   141   140    1
   172   117   115   ar
   173   114   113    1
   174   114   115   ar
   175   136   137    1
   176   123   124    1
   177   124   125    1
   178   140   137    1
   179   137   138    1
   180   125   127   am
   181   125   126    2
   182   138   139    2
