@<TRIPOS>MOLECULE
tmp/2b54A00.pdb
 200 192 0 0 0
SMALL
GASTEIGER

@<TRIPOS>ATOM
      1  N        130.1670  -80.9610   95.7320 N.3     8  GLU8       -0.1231
      2  CA       129.4350  -79.7280   95.3750 C.3     8  GLU8        0.1699
      3  C        128.0850  -79.6520   96.0310 C.2     8  GLU8        0.2592
      4  O        127.4370  -80.6660   96.1950 O.2     8  GLU8       -0.2718
      5  CB       129.1640  -79.6520   93.8610 C.3     8  GLU8        0.0402
      6  CG       128.9180  -78.2530   93.2770 C.3     8  GLU8        0.1161
      7  CD       128.6250  -78.3230   91.7810 C.2     8  GLU8        0.3649
      8  OE1      128.1220  -77.3280   91.2670 O.co2   8  GLU8       -0.2457
      9  OE2      128.8800  -79.3460   91.1360 O.co2   8  GLU8       -0.2457
     10  N        127.6440  -78.4140   96.3170 N.am    9  LYS9       -0.1966
     11  CA       126.2100  -78.3230   96.6450 C.3     9  LYS9        0.1728
     12  C        125.3020  -78.6750   95.4670 C.2     9  LYS9        0.2616
     13  O        125.4770  -78.1260   94.3970 O.2     9  LYS9       -0.2715
     14  CB       125.8390  -76.9450   97.2830 C.3     9  LYS9        0.0311
     15  CG       125.0970  -75.8810   96.4180 C.3     9  LYS9        0.0038
     16  CD       125.9610  -75.2400   95.2910 C.3     9  LYS9        0.0206
     17  CE       125.2390  -74.7070   94.0420 C.3     9  LYS9        0.1093
     18  NZ       124.6790  -75.7860   93.2020 N.3     9  LYS9       -0.1314
     19  N        124.3380  -79.5960   95.6490 N.am   10  ILE10      -0.1963
     20  CA       123.5460  -79.6850   94.4300 C.3    10  ILE10       0.1727
     21  C        122.1820  -79.0860   94.4860 C.2    10  ILE10       0.2617
     22  O        121.3800  -79.3230   93.5910 O.2    10  ILE10      -0.2715
     23  CB       123.4520  -81.0670   93.8350 C.3    10  ILE10       0.0290
     24  CG1      122.7700  -81.9820   94.8270 C.3    10  ILE10       0.0022
     25  CG2      124.8440  -81.5310   93.4180 C.3    10  ILE10       0.0023
     26  CD1      123.1430  -83.4360   94.5720 C.3    10  ILE10       0.0001
     27  N        121.9520  -78.3050   95.5510 N.am   11  GLY11      -0.1940
     28  CA       120.6640  -77.6350   95.6520 C.3    11  GLY11       0.2014
     29  C        120.1500  -77.6790   97.0690 C.2    11  GLY11       0.2639
     30  O        120.2380  -78.6710   97.7850 O.2    11  GLY11      -0.2714
     31  N        119.6120  -76.5180   97.4660 N.am   12  GLU12      -0.1963
     32  CA       118.8970  -76.4690   98.7290 C.3    12  GLU12       0.1733
     33  C        117.5310  -77.0910   98.4970 C.2    12  GLU12       0.2617
     34  O        116.8380  -76.7700   97.5330 O.2    12  GLU12      -0.2715
     35  CB       118.9140  -75.0100   99.1630 C.3    12  GLU12       0.0429
     36  CG       118.7380  -74.7790  100.6600 C.3    12  GLU12       0.1163
     37  CD       119.7260  -75.5620  101.5130 C.2    12  GLU12       0.3649
     38  OE1      120.9120  -75.2450  101.4880 O.co2  12  GLU12      -0.2457
     39  OE2      119.2890  -76.4680  102.2240 O.co2  12  GLU12      -0.2457
     40  N        117.2430  -78.0760   99.3660 N.am   13  GLY13      -0.1940
     41  CA       116.2240  -79.0690   99.0230 C.3    13  GLY13       0.2014
     42  C        115.4380  -79.5490  100.2290 C.2    13  GLY13       0.2639
     43  O        115.6720  -80.5910  100.8470 O.2    13  GLY13      -0.2714
     44  N        114.4600  -78.6570  100.4980 N.am   14  THR14      -0.1950
     45  CA       113.3650  -78.7870  101.4550 C.3    14  THR14       0.1897
     46  C        113.8820  -79.0350  102.8580 C.2    14  THR14       0.2313
     47  O        114.3280  -78.1060  103.5300 O.2    14  THR14      -0.2863
     48  CB       112.2930  -79.7830  100.9570 C.3    14  THR14       0.1794
     49  OG1      112.0040  -79.5560   99.5630 O.3    14  THR14      -0.2208
     50  CG2      110.9800  -79.6830  101.7270 C.3    14  THR14       0.0378
     51  N        121.6910  -80.5950  100.1480 N.3    18  VAL18      -0.1245
     52  CA       122.0690  -81.8520   99.5410 C.3    18  VAL18       0.1561
     53  C        123.2320  -81.5090   98.7320 C.2    18  VAL18       0.2260
     54  O        123.0750  -80.6110   97.9320 O.2    18  VAL18      -0.2867
     55  CB       120.8700  -82.4590   98.7670 C.3    18  VAL18       0.0252
     56  CG1      119.6970  -81.5210   98.6110 C.3    18  VAL18       0.0019
     57  CG2      121.2430  -83.3570   97.5950 C.3    18  VAL18       0.0019
     58  N        126.6100  -83.1710   96.3540 N.3    20  LYS20      -0.1245
     59  CA       127.2570  -84.3510   95.8040 C.3    20  LYS20       0.1561
     60  C        128.5210  -84.6550   96.5930 C.2    20  LYS20       0.2260
     61  O        129.2530  -83.7400   96.9550 O.2    20  LYS20      -0.2867
     62  CB       127.5270  -83.9960   94.3360 C.3    20  LYS20       0.0271
     63  CG       128.1650  -85.0980   93.4930 C.3    20  LYS20       0.0035
     64  CD       128.2700  -84.5900   92.0640 C.3    20  LYS20       0.0206
     65  CE       129.2970  -85.3050   91.1910 C.3    20  LYS20       0.1093
     66  NZ       129.0970  -84.8740   89.7780 N.3    20  LYS20      -0.1314
     67  N        124.6590  -88.7320   96.9030 N.3    31  ALA31      -0.1245
     68  CA       124.0330  -87.5470   97.4820 C.3    31  ALA31       0.1562
     69  C        123.7350  -87.6240   98.9710 C.2    31  ALA31       0.2260
     70  O        122.9910  -88.4370   99.4870 O.2    31  ALA31      -0.2867
     71  CB       122.7360  -87.1790   96.7850 C.3    31  ALA31       0.0290
     72  N        122.4310  -85.7030  102.1060 N.3    33  LYS33      -0.1245
     73  CA       121.4360  -84.7880  102.6240 C.3    33  LYS33       0.1561
     74  C        121.6470  -84.4560  104.1100 C.2    33  LYS33       0.2260
     75  O        121.6030  -85.2880  105.0000 O.2    33  LYS33      -0.2867
     76  CB       120.0590  -85.4030  102.3270 C.3    33  LYS33       0.0271
     77  CG       118.9730  -84.4360  101.8630 C.3    33  LYS33       0.0035
     78  CD       118.7640  -84.3170  100.3280 C.3    33  LYS33       0.0206
     79  CE       117.7570  -85.2650   99.6370 C.3    33  LYS33       0.1093
     80  NZ       117.0140  -84.6610   98.4880 N.3    33  LYS33      -0.1314
     81  N        114.8660  -93.8280   94.3270 N.3    64  VAL64      -0.1245
     82  CA       116.2790  -93.6410   94.6180 C.3    64  VAL64       0.1561
     83  C        116.6090  -94.2880   95.9290 C.2    64  VAL64       0.2260
     84  O        115.9430  -94.1260   96.9430 O.2    64  VAL64      -0.2867
     85  CB       116.8020  -92.2030   94.3920 C.3    64  VAL64       0.0252
     86  CG1      115.7890  -91.2840   93.7740 C.3    64  VAL64       0.0019
     87  CG2      117.5640  -91.4940   95.5020 C.3    64  VAL64       0.0019
     88  N        121.9910  -90.9140   99.8470 N.3    80  PHE80      -0.1227
     89  CA       121.2370  -91.4230   98.7090 C.3    80  PHE80       0.1736
     90  C        122.0910  -91.7340   97.4890 C.2    80  PHE80       0.2595
     91  O        123.1490  -91.1590   97.3200 O.2    80  PHE80      -0.2718
     92  CB       120.2420  -90.3570   98.1750 C.3    80  PHE80       0.0547
     93  CG       119.1410  -90.0970   99.1720 C.ar   80  PHE80      -0.0202
     94  CD1      119.2090  -88.9550   99.9930 C.ar   80  PHE80      -0.0042
     95  CD2      118.0800  -91.0140   99.2850 C.ar   80  PHE80      -0.0042
     96  CE1      118.2720  -88.7790  101.0200 C.ar   80  PHE80      -0.0003
     97  CE2      117.1150  -90.8430  100.2990 C.ar   80  PHE80      -0.0003
     98  CZ       117.2620  -89.7500  101.1870 C.ar   80  PHE80      -0.0000
     99  N        121.5470  -92.5700   96.5640 N.am   81  GLU81      -0.1965
    100  CA       122.3080  -92.6950   95.3020 C.3    81  GLU81       0.1733
    101  C        122.2130  -91.3950   94.5690 C.2    81  GLU81       0.2616
    102  O        121.2080  -90.6920   94.6840 O.2    81  GLU81      -0.2715
    103  CB       121.8160  -93.8170   94.3680 C.3    81  GLU81       0.0429
    104  CG       120.3510  -93.5770   93.9950 C.3    81  GLU81       0.1163
    105  CD       119.8700  -94.5350   92.9340 C.2    81  GLU81       0.3649
    106  OE1      120.4490  -94.5260   91.8380 O.co2  81  GLU81      -0.2457
    107  OE2      118.8920  -95.2580   93.1910 O.co2  81  GLU81      -0.2457
    108  N        123.2960  -91.1320   93.8590 N.am   82  PHE82      -0.1960
    109  CA       123.3260  -89.9190   93.0730 C.3    82  PHE82       0.1771
    110  C        122.6740  -90.0680   91.7030 C.2    82  PHE82       0.2619
    111  O        122.9520  -91.0210   90.9810 O.2    82  PHE82      -0.2715
    112  CB       124.7830  -89.5690   92.8950 C.3    82  PHE82       0.0574
    113  CG       124.8730  -88.1610   92.4090 C.ar   82  PHE82      -0.0200
    114  CD1      124.4820  -87.1170   93.2720 C.ar   82  PHE82      -0.0042
    115  CD2      125.3230  -87.9080   91.1160 C.ar   82  PHE82      -0.0042
    116  CE1      124.5070  -85.7890   92.8410 C.ar   82  PHE82      -0.0003
    117  CE2      125.3900  -86.5850   90.6490 C.ar   82  PHE82      -0.0003
    118  CZ       124.9930  -85.5480   91.5370 C.ar   82  PHE82      -0.0000
    119  N        121.8590  -89.0390   91.3510 N.am   83  LEU83      -0.1963
    120  CA       121.5150  -88.8840   89.9390 C.3    83  LEU83       0.1728
    121  C        121.8440  -87.5470   89.3450 C.2    83  LEU83       0.2616
    122  O        121.6780  -86.5210   89.9920 O.2    83  LEU83      -0.2715
    123  CB       120.0660  -89.0300   89.6750 C.3    83  LEU83       0.0311
    124  CG       119.6230  -90.4600   89.6910 C.3    83  LEU83       0.0022
    125  CD1      118.5770  -90.6730   88.6660 C.3    83  LEU83       0.0001
    126  CD2      120.6030  -91.4560   89.1820 C.3    83  LEU83       0.0001
    127  N        122.3200  -87.6080   88.0770 N.am   84  HIS84      -0.1959
    128  CA       122.8150  -86.3770   87.4880 C.3    84  HIS84       0.1787
    129  C        121.7420  -85.3600   87.2090 C.2    84  HIS84       0.2620
    130  O        122.0790  -84.2020   87.3550 O.2    84  HIS84      -0.2715
    131  CB       123.6320  -86.5750   86.2140 C.3    84  HIS84       0.0785
    132  CG       124.8620  -87.3760   86.4760 C.ar   84  HIS84       0.0821
    133  ND1      124.8550  -88.7100   86.6380 N.ar   84  HIS84      -0.2267
    134  CD2      126.1510  -86.8890   86.6200 C.ar   84  HIS84       0.1154
    135  CE1      126.1280  -89.1180   86.8960 C.ar   84  HIS84       0.1986
    136  NE2      126.9010  -87.9910   86.8730 N.ar   84  HIS84      -0.2212
    137  N        120.4890  -85.7610   86.8090 N.am   85  GLN85      -0.1963
    138  CA       119.5330  -84.6670   86.4800 C.3    85  GLN85       0.1733
    139  C        118.1850  -84.7760   87.1270 C.2    85  GLN85       0.2616
    140  O        117.6800  -85.8670   87.3060 O.2    85  GLN85      -0.2715
    141  CB       119.2930  -84.5130   84.9760 C.3    85  GLN85       0.0408
    142  CG       119.0260  -83.0390   84.5870 C.3    85  GLN85       0.0908
    143  CD       118.9810  -82.8660   83.0620 C.2    85  GLN85       0.2608
    144  OE1      118.4140  -81.9350   82.5140 O.2    85  GLN85      -0.2717
    145  NE2      119.6330  -83.8040   82.3800 N.am   85  GLN85      -0.0878
    146  N        117.5920  -83.6060   87.4230 N.am   86  ASP86      -0.1971
    147  CA       116.1520  -83.7520   87.6620 C.3    86  ASP86       0.1709
    148  C        115.2970  -83.4980   86.4400 C.2    86  ASP86       0.2293
    149  O        115.7480  -82.9600   85.4450 O.2    86  ASP86      -0.2864
    150  CB       115.7210  -82.9650   88.9170 C.3    86  ASP86       0.1436
    151  CG       115.9060  -81.4900   88.7070 C.2    86  ASP86       0.3671
    152  OD1      116.7030  -80.9000   89.4530 O.co2  86  ASP86      -0.2456
    153  OD2      115.2590  -80.9500   87.8030 O.co2  86  ASP86      -0.2456
    154  N        106.9300  -83.5360   92.8550 N.3   129  LYS129     -0.1245
    155  CA       107.1270  -82.3590   92.0190 C.3   129  LYS129      0.1561
    156  C        108.2390  -82.7470   91.0690 C.2   129  LYS129      0.2260
    157  O        108.9450  -83.6990   91.3470 O.2   129  LYS129     -0.2867
    158  CB       107.3170  -81.0890   92.8820 C.3   129  LYS129      0.0271
    159  CG       108.4700  -81.1640   93.8680 C.3   129  LYS129      0.0035
    160  CD       108.5310  -79.9970   94.8460 C.3   129  LYS129      0.0206
    161  CE       109.8680  -79.9740   95.5960 C.3   129  LYS129      0.1093
    162  NZ       109.8510  -78.8350   96.5300 N.3   129  LYS129     -0.1314
    163  N        110.9970  -81.4180   90.3670 N.3   131  GLN131     -0.1231
    164  CA       112.3160  -81.3350   90.9910 C.3   131  GLN131      0.1698
    165  C        112.7550  -82.5110   91.8960 C.2   131  GLN131      0.2592
    166  O        113.9310  -82.6160   92.2430 O.2   131  GLN131     -0.2718
    167  CB       112.4280  -80.0490   91.8340 C.3   131  GLN131      0.0381
    168  CG       111.8750  -78.6870   91.3550 C.3   131  GLN131      0.0905
    169  CD       110.3330  -78.5540   91.3250 C.2   131  GLN131      0.2608
    170  OE1      109.6590  -78.8940   90.3660 O.2   131  GLN131     -0.2717
    171  NE2      109.7960  -77.9480   92.3960 N.am  131  GLN131     -0.0878
    172  N        111.8140  -83.3940   92.2950 N.am  132  ASN132     -0.1974
    173  CA       112.2900  -84.6490   92.9100 C.3   132  ASN132      0.1688
    174  C        112.0780  -85.8970   92.0440 C.2   132  ASN132      0.2292
    175  O        111.8220  -87.0030   92.5150 O.2   132  ASN132     -0.2864
    176  CB       111.6490  -85.0160   94.2470 C.3   132  ASN132      0.1181
    177  CG       110.8780  -83.9200   94.9010 C.2   132  ASN132      0.2629
    178  OD1      111.3830  -83.1400   95.7160 O.2   132  ASN132     -0.2716
    179  ND2      109.5700  -83.9860   94.5400 N.am  132  ASN132     -0.0877
    180  N        113.8410  -88.0220   89.0370 N.3   134  LEU134     -0.1245
    181  CA       115.2790  -87.9240   88.8730 C.3   134  LEU134      0.1561
    182  C        115.7030  -88.9160   87.8420 C.2   134  LEU134      0.2260
    183  O        115.3270  -90.0690   87.8760 O.2   134  LEU134     -0.2867
    184  CB       115.8300  -88.1630   90.2910 C.3   134  LEU134      0.0270
    185  CG       116.7700  -87.1430   90.9200 C.3   134  LEU134      0.0019
    186  CD1      116.3180  -85.7020   90.8460 C.3   134  LEU134      0.0001
    187  CD2      117.0420  -87.5810   92.3580 C.3   134  LEU134      0.0001
    188  N        112.5140  -89.2790   94.2620 N.3   144  ALA144     -0.1231
    189  CA       113.4430  -88.9020   95.3280 C.3   144  ALA144      0.1694
    190  C        112.6890  -88.3940   96.5220 C.2   144  ALA144      0.2592
    191  O        111.6030  -87.8560   96.3350 O.2   144  ALA144     -0.2718
    192  CB       114.4150  -87.8520   94.7950 C.3   144  ALA144      0.0304
    193  N        113.2490  -88.6230   97.7210 N.am  145  ASP145     -0.1974
    194  CA       112.7130  -88.1360   99.0270 C.3   145  ASP145      0.1709
    195  C        111.3540  -88.6840   99.4980 C.2   145  ASP145      0.2293
    196  O        110.5880  -88.0850  100.2560 O.2   145  ASP145     -0.2864
    197  CB       112.6340  -86.5950   99.1440 C.3   145  ASP145      0.1436
    198  CG       113.9970  -85.9030   98.9780 C.2   145  ASP145      0.3671
    199  OD1      115.0210  -86.5850   98.9580 O.co2 145  ASP145     -0.2456
    200  OD2      114.0450  -84.6680   98.8760 O.co2 145  ASP145     -0.2456
@<TRIPOS>BOND
     1   145   143   am
     2   144   143    2
     3   143   142    1
     4   142   141    1
     5   141   138    1
     6   149   148    2
     7   131   132    1
     8   131   128    1
     9   148   147    1
    10   132   134   ar
    11   132   133   ar
    12   138   137    1
    13   138   139    1
    14   134   136   ar
    15   133   135   ar
    16   137   129   am
    17   136   135   ar
    18   139   140    2
    19   139   146   am
    20   129   130    2
    21   129   128    1
    22   146   147    1
    23   128   127    1
    24   147   150    1
    25   153   151   ar
    26   182   183    2
    27   182   181    1
    28   127   121   am
    29   125   124    1
    30   151   150    1
    31   151   152   ar
    32   181   180    1
    33   181   184    1
    34   126   124    1
    35   121   120    1
    36   121   122    2
    37   123   124    1
    38   123   120    1
    39    66    65    1
    40   120   119    1
    41   184   185    1
    42   170   169    2
    43   163   164    1
    44   117   115   ar
    45   117   118   ar
    46   186   185    1
    47   185   187    1
    48   111   110    2
    49   164   167    1
    50   164   165    1
    51   156   157    2
    52   156   155    1
    53   115   113   ar
    54     9     7   ar
    55    65    64    1
    56     8     7   ar
    57   169   168    1
    58   169   171   am
    59   119   110   am
    60   168   167    1
    61   118   116   ar
    62   110   109    1
    63     7     6    1
    64   106   105   ar
    65   165   166    2
    66   165   172   am
    67   155   154    1
    68   155   158    1
    69   174   175    2
    70   174   173    1
    71    64    63    1
    72   172   173    1
    73   113   112    1
    74   113   114   ar
    75   116   114   ar
    76   158   159    1
    77   112   109    1
    78   173   176    1
    79   105   107   ar
    80   105   104    1
    81   109   108    1
    82    18    17    1
    83     6     5    1
    84    25    23    1
    85    63    62    1
    86    22    21    2
    87    86    85    1
    88    23    20    1
    89    23    24    1
    90   108   101   am
    91     5     2    1
    92   159   160    1
    93   104   103    1
    94    17    16    1
    95   176   177    1
    96   188   189    1
    97    81    82    1
    98    62    59    1
    99   103   100    1
   100    85    82    1
   101    85    87    1
   102    13    12    2
   103    20    21    1
   104    20    19    1
   105    21    27   am
   106   179   177   am
   107   101   102    2
   108   101   100    1
   109    26    24    1
   110    82    83    1
   111   192   189    1
   112   160   161    1
   113   177   178    2
   114    16    15    1
   115   100    99    1
   116   189   190    1
   117     2     1    1
   118     2     3    1
   119    12    19   am
   120    12    11    1
   121    27    28    1
   122   161   162    1
   123    28    29    1
   124    59    58    1
   125    59    60    1
   126    83    84    2
   127     3     4    2
   128     3    10   am
   129    10    11    1
   130   191   190    2
   131    15    14    1
   132   190   193   am
   133    99    90   am
   134    60    61    2
   135    11    14    1
   136    71    68    1
   137    67    68    1
   138    29    31   am
   139    29    30    2
   140    91    90    2
   141    31    32    1
   142    68    69    1
   143    90    89    1
   144    34    33    2
   145    57    55    1
   146   193   194    1
   147    54    53    2
   148    92    89    1
   149    92    93    1
   150    80    79    1
   151    33    32    1
   152    33    40   am
   153    56    55    1
   154    89    88    1
   155    32    35    1
   156    53    52    1
   157    55    52    1
   158   200   198   ar
   159   199   198   ar
   160    69    70    2
   161   198   197    1
   162    41    40    1
   163    41    42    1
   164   194   197    1
   165   194   195    1
   166    35    36    1
   167    93    95   ar
   168    93    94   ar
   169    95    97   ar
   170   195   196    2
   171    52    51    1
   172    49    48    1
   173    79    78    1
   174    94    96   ar
   175    42    44   am
   176    42    43    2
   177    97    98   ar
   178    78    77    1
   179    44    45    1
   180    36    37    1
   181    48    45    1
   182    48    50    1
   183    96    98   ar
   184    45    46    1
   185    38    37   ar
   186    37    39   ar
   187    77    76    1
   188    72    73    1
   189    76    73    1
   190    73    74    1
   191    46    47    2
   192    74    75    2
