@<TRIPOS>MOLECULE
tmp/2b55A00.pdb
 175 167 0 0 0
SMALL
GASTEIGER

@<TRIPOS>ATOM
      1  N         21.8110    6.2230   14.4380 N.3    10  ILE10      -0.1231
      2  CA        22.7540    6.6120   13.4040 C.3    10  ILE10       0.1692
      3  C         23.9980    5.7320   13.4690 C.2    10  ILE10       0.2593
      4  O         24.6470    5.4910   12.4520 O.2    10  ILE10      -0.2718
      5  CB        23.1760    8.0770   13.5770 C.3    10  ILE10       0.0266
      6  CG1       22.0280    9.0000   13.1830 C.3    10  ILE10       0.0019
      7  CG2       24.4080    8.3670   12.7490 C.3    10  ILE10       0.0020
      8  CD1       22.3240   10.4610   13.4230 C.3    10  ILE10       0.0001
      9  N         24.3290    5.2560   14.6640 N.am   11  GLY11      -0.1942
     10  CA        25.5020    4.4170   14.8160 C.3    11  GLY11       0.2014
     11  C         26.0370    4.4500   16.2330 C.2    11  GLY11       0.2639
     12  O         25.3950    5.0130   17.1140 O.2    11  GLY11      -0.2714
     13  N         27.2170    3.8560   16.4290 N.am   12  GLU12      -0.1963
     14  CA        27.8950    3.7660   17.7230 C.3    12  GLU12       0.1733
     15  C         29.2420    4.4630   17.6640 C.2    12  GLU12       0.2616
     16  O         30.0810    4.1120   16.8430 O.2    12  GLU12      -0.2715
     17  CB        28.1330    2.3010   18.0930 C.3    12  GLU12       0.0429
     18  CG        27.5240    1.8940   19.4060 C.3    12  GLU12       0.1163
     19  CD        26.0240    2.1470   19.4970 C.2    12  GLU12       0.3649
     20  OE1       25.2810    1.1540   19.5580 O.co2  12  GLU12      -0.2457
     21  OE2       25.5560    3.3060   19.5260 O.co2  12  GLU12      -0.2457
     22  N         29.4460    5.4590   18.5150 N.am   13  GLY13      -0.1955
     23  CA        30.7230    6.1410   18.5350 C.3    13  GLY13       0.1869
     24  C         31.5130    5.5390   19.6790 C.2    13  GLY13       0.2309
     25  O         31.1580    4.4800   20.2120 O.2    13  GLY13      -0.2863
     26  N         24.9560    7.2540   19.0440 N.3    18  VAL18      -0.1245
     27  CA        24.4190    8.4200   18.3580 C.3    18  VAL18       0.1561
     28  C         23.0850    8.0470   17.7030 C.2    18  VAL18       0.2260
     29  O         22.9520    6.9900   17.0810 O.2    18  VAL18      -0.2867
     30  CB        25.4200    8.9450   17.2940 C.3    18  VAL18       0.0252
     31  CG1       24.8190   10.1120   16.5510 C.3    18  VAL18       0.0019
     32  CG2       26.7280    9.3690   17.9710 C.3    18  VAL18       0.0019
     33  N         21.3810   15.3000   15.6540 N.3    31  ALA31      -0.1245
     34  CA        22.1380   14.0820   15.9060 C.3    31  ALA31       0.1562
     35  C         22.3020   14.0560   17.4220 C.2    31  ALA31       0.2260
     36  O         22.9780   14.9140   17.9930 O.2    31  ALA31      -0.2867
     37  CB        23.4890   14.1430   15.2160 C.3    31  ALA31       0.0290
     38  N         23.7190   12.4490   20.7790 N.3    33  LYS33      -0.1245
     39  CA        24.7630   11.5690   21.3020 C.3    33  LYS33       0.1561
     40  C         24.6460   11.3630   22.8090 C.2    33  LYS33       0.2260
     41  O         24.8690   12.2890   23.5860 O.2    33  LYS33      -0.2867
     42  CB        26.1470   12.1330   20.9720 C.3    33  LYS33       0.0271
     43  CG        27.2750   11.2180   21.3640 C.3    33  LYS33       0.0035
     44  CD        28.5830   11.7640   20.8760 C.3    33  LYS33       0.0206
     45  CE        29.6870   10.7440   21.0380 C.3    33  LYS33       0.1093
     46  NZ        30.9380   11.2580   20.4250 N.3    33  LYS33      -0.1314
     47  N         31.1160   20.3930   13.0680 N.3    57  VAL57      -0.1245
     48  CA        29.7120   20.0660   13.3090 C.3    57  VAL57       0.1561
     49  C         29.3010   20.8400   14.5530 C.2    57  VAL57       0.2260
     50  O         29.9510   20.7620   15.5990 O.2    57  VAL57      -0.2867
     51  CB        29.4880   18.5350   13.5220 C.3    57  VAL57       0.0252
     52  CG1       28.0190   18.2400   13.8610 C.3    57  VAL57       0.0019
     53  CG2       29.8540   17.7920   12.2530 C.3    57  VAL57       0.0019
     54  N         23.8990   17.5950   18.4980 N.3    73  PHE73      -0.1227
     55  CA        24.6390   18.1590   17.3800 C.3    73  PHE73       0.1736
     56  C         23.7400   18.3900   16.1700 C.2    73  PHE73       0.2595
     57  O         22.6530   17.8150   16.0680 O.2    73  PHE73      -0.2718
     58  CB        25.7640   17.1950   16.9700 C.3    73  PHE73       0.0547
     59  CG        26.8770   17.0780   17.9730 C.ar   73  PHE73      -0.0202
     60  CD1       27.9020   18.0150   18.0030 C.ar   73  PHE73      -0.0042
     61  CD2       26.9170   16.0160   18.8650 C.ar   73  PHE73      -0.0042
     62  CE1       28.9530   17.8990   18.9010 C.ar   73  PHE73      -0.0003
     63  CE2       27.9620   15.8900   19.7680 C.ar   73  PHE73      -0.0003
     64  CZ        28.9840   16.8360   19.7830 C.ar   73  PHE73      -0.0000
     65  N         24.2020   19.2260   15.2460 N.am   74  GLU74      -0.1965
     66  CA        23.4450   19.4730   14.0320 C.3    74  GLU74       0.1733
     67  C         23.5080   18.1640   13.2470 C.2    74  GLU74       0.2616
     68  O         24.4590   17.3850   13.4060 O.2    74  GLU74      -0.2715
     69  CB        24.0800   20.5990   13.2120 C.3    74  GLU74       0.0429
     70  CG        25.4350   20.2500   12.6160 C.3    74  GLU74       0.1163
     71  CD        25.9670   21.3320   11.6930 C.2    74  GLU74       0.3649
     72  OE1       25.2550   21.6980   10.7350 O.co2  74  GLU74      -0.2457
     73  OE2       27.0960   21.8190   11.9200 O.co2  74  GLU74      -0.2457
     74  N         22.4950   17.9060   12.4260 N.am   75  PHE75      -0.1960
     75  CA        22.4640   16.6950   11.6200 C.3    75  PHE75       0.1771
     76  C         22.9380   16.9620   10.1780 C.2    75  PHE75       0.2619
     77  O         22.4730   17.9010    9.5190 O.2    75  PHE75      -0.2715
     78  CB        21.0400   16.1180   11.5960 C.3    75  PHE75       0.0574
     79  CG        20.9150   14.8250   10.8350 C.ar   75  PHE75      -0.0200
     80  CD1       21.3250   13.6210   11.4060 C.ar   75  PHE75      -0.0042
     81  CD2       20.4150   14.8080    9.5390 C.ar   75  PHE75      -0.0042
     82  CE1       21.2430   12.4130   10.6990 C.ar   75  PHE75      -0.0003
     83  CE2       20.3290   13.6020    8.8190 C.ar   75  PHE75      -0.0003
     84  CZ        20.7460   12.4020    9.4040 C.ar   75  PHE75      -0.0000
     85  N         23.8760   16.1430    9.7060 N.am   76  LEU76      -0.1963
     86  CA        24.3920   16.2370    8.3330 C.3    76  LEU76       0.1728
     87  C         23.8890   14.9720    7.6250 C.2    76  LEU76       0.2616
     88  O         23.6840   13.9460    8.2670 O.2    76  LEU76      -0.2715
     89  CB        25.9260   16.2760    8.3320 C.3    76  LEU76       0.0311
     90  CG        26.6880   17.5790    8.6360 C.3    76  LEU76       0.0022
     91  CD1       26.3720   18.5930    7.5590 C.3    76  LEU76       0.0001
     92  CD2       26.3270   18.1350   10.0070 C.3    76  LEU76       0.0001
     93  N         23.6970   15.0100    6.3140 N.am   77  HIS77      -0.1959
     94  CA        23.1700   13.8150    5.6630 C.3    77  HIS77       0.1787
     95  C         24.0680   12.6620    5.2430 C.2    77  HIS77       0.2620
     96  O         23.5610   11.6140    4.8340 O.2    77  HIS77      -0.2715
     97  CB        22.2930   14.2030    4.4780 C.3    77  HIS77       0.0785
     98  CG        20.8360   14.2870    4.8210 C.ar   77  HIS77       0.0821
     99  ND1       20.2830   15.3770    5.4590 N.ar   77  HIS77      -0.2267
    100  CD2       19.8260   13.4010    4.6390 C.ar   77  HIS77       0.1154
    101  CE1       18.9940   15.1600    5.6550 C.ar   77  HIS77       0.1986
    102  NE2       18.6920   13.9690    5.1670 N.ar   77  HIS77      -0.2212
    103  N         25.3830   12.8220    5.3360 N.am   78  GLN78      -0.1963
    104  CA        26.2670   11.7230    4.9690 C.3    78  GLN78       0.1733
    105  C         27.6630   11.9380    5.5310 C.2    78  GLN78       0.2616
    106  O         28.0460   13.0590    5.8600 O.2    78  GLN78      -0.2715
    107  CB        26.3230   11.5800    3.4410 C.3    78  GLN78       0.0408
    108  CG        26.8140   10.2260    2.9430 C.3    78  GLN78       0.0908
    109  CD        26.4650    9.9930    1.4750 C.2    78  GLN78       0.2608
    110  OE1       27.2760   10.2310    0.5790 O.2    78  GLN78      -0.2717
    111  NE2       25.2400    9.5410    1.2250 N.am   78  GLN78      -0.0878
    112  N         28.4040   10.8460    5.6650 N.am   79  ASP79      -0.1971
    113  CA        29.7710   10.9120    6.1490 C.3    79  ASP79       0.1709
    114  C         30.6590   10.6270    4.9480 C.2    79  ASP79       0.2293
    115  O         30.1880   10.0930    3.9340 O.2    79  ASP79      -0.2864
    116  CB        30.0140    9.8850    7.2550 C.3    79  ASP79       0.1436
    117  CG        29.8300    8.4550    6.7830 C.2    79  ASP79       0.3671
    118  OD1       30.5050    8.0460    5.8230 O.co2  79  ASP79      -0.2456
    119  OD2       29.0090    7.7310    7.3770 O.co2  79  ASP79      -0.2456
    120  N         30.9610    6.8810    3.5460 N.3    82  LYS82      -0.1245
    121  CA        29.8760    6.4790    2.6560 C.3    82  LYS82       0.1561
    122  C         30.0500    7.0880    1.2750 C.2    82  LYS82       0.2260
    123  O         29.9420    6.3940    0.2670 O.2    82  LYS82      -0.2867
    124  CB        28.5180    6.8980    3.2340 C.3    82  LYS82       0.0271
    125  CG        28.0930    6.0810    4.4410 C.3    82  LYS82       0.0035
    126  CD        26.8610    6.6760    5.1140 C.3    82  LYS82       0.0206
    127  CE        26.3690    5.7850    6.2590 C.3    82  LYS82       0.1093
    128  NZ        27.3630    5.6480    7.3700 N.3    82  LYS82      -0.1314
    129  N         38.9520   10.5440   10.9150 N.3   122  LYS122     -0.1245
    130  CA        38.7740    9.4390    9.9910 C.3   122  LYS122      0.1561
    131  C         37.5560    9.6790    9.1180 C.2   122  LYS122      0.2260
    132  O         36.7250   10.5340    9.4210 O.2   122  LYS122     -0.2867
    133  CB        38.6440    8.1160   10.7480 C.3   122  LYS122      0.0271
    134  CG        37.6160    8.1140   11.8410 C.3   122  LYS122      0.0035
    135  CD        37.7380    6.8480   12.6700 C.3   122  LYS122      0.0206
    136  CE        36.7670    6.8760   13.8370 C.3   122  LYS122      0.1093
    137  NZ        36.8770    5.6500   14.6820 N.3   122  LYS122     -0.1314
    138  N         34.8010    8.1360    8.7490 N.3   124  GLN124     -0.1231
    139  CA        33.5300    8.0010    9.4680 C.3   124  GLN124      0.1698
    140  C         33.1030    9.2310   10.2570 C.2   124  GLN124      0.2592
    141  O         31.9060    9.4460   10.4330 O.2   124  GLN124     -0.2718
    142  CB        33.5500    6.7910   10.4060 C.3   124  GLN124      0.0381
    143  CG        33.9390    5.4970    9.7130 C.3   124  GLN124      0.0905
    144  CD        35.4230    5.1890    9.8430 C.2   124  GLN124      0.2608
    145  OE1       35.8400    4.4750   10.7610 O.2   124  GLN124     -0.2717
    146  NE2       36.2280    5.7390    8.9380 N.am  124  GLN124     -0.0878
    147  N         34.0450   10.0380   10.7460 N.am  125  ASN125     -0.1974
    148  CA        33.6310   11.2310   11.4800 C.3   125  ASN125      0.1688
    149  C         33.8050   12.5340   10.6970 C.2   125  ASN125      0.2292
    150  O         33.9410   13.6150   11.2720 O.2   125  ASN125     -0.2864
    151  CB        34.3120   11.3200   12.8650 C.3   125  ASN125      0.1181
    152  CG        35.8150   11.1770   12.8070 C.2   125  ASN125      0.2629
    153  OD1       36.4880   11.7780   11.9680 O.2   125  ASN125     -0.2716
    154  ND2       36.3560   10.3870   13.7260 N.am  125  ASN125     -0.0877
    155  N         31.7660   14.7000    8.1780 N.3   127  LEU127     -0.1245
    156  CA        30.4080   14.8660    7.6680 C.3   127  LEU127      0.1561
    157  C         30.2600   15.8670    6.5280 C.2   127  LEU127      0.2260
    158  O         30.8730   16.9250    6.5350 O.2   127  LEU127     -0.2867
    159  CB        29.4920   15.2520    8.8250 C.3   127  LEU127      0.0270
    160  CG        29.6030   14.3590   10.0650 C.3   127  LEU127      0.0019
    161  CD1       28.7170   14.9220   11.1440 C.3   127  LEU127      0.0001
    162  CD2       29.1870   12.9270    9.7470 C.3   127  LEU127      0.0001
    163  N         33.7820   16.1120   13.1020 N.3   137  ALA137     -0.1231
    164  CA        32.8350   15.6610   14.1120 C.3   137  ALA137      0.1694
    165  C         33.4630   14.6160   15.0180 C.2   137  ALA137      0.2592
    166  O         34.5260   14.0690   14.7220 O.2   137  ALA137     -0.2718
    167  CB        31.5830   15.0830   13.4510 C.3   137  ALA137      0.0304
    168  N         32.7880   14.3550   16.1310 N.am  138  ASP138     -0.1974
    169  CA        33.2200   13.3580   17.1010 C.3   138  ASP138      0.1709
    170  C         34.6390   13.5700   17.6180 C.2   138  ASP138      0.2293
    171  O         35.4740   12.6610   17.5740 O.2   138  ASP138     -0.2864
    172  CB        33.0870   11.9710   16.4830 C.3   138  ASP138      0.1436
    173  CG        33.2620   10.8690   17.4960 C.2   138  ASP138      0.3671
    174  OD1       32.8810   11.0770   18.6690 O.co2 138  ASP138     -0.2456
    175  OD2       33.7650    9.7930   17.1140 O.co2 138  ASP138     -0.2456
@<TRIPOS>BOND
     1   123   122    2
     2   110   109    2
     3   111   109   am
     4   122   121    1
     5   109   108    1
     6   121   124    1
     7   121   120    1
     8   108   107    1
     9   124   125    1
    10   107   104    1
    11   115   114    2
    12   125   126    1
    13    97    98    1
    14    97    94    1
    15   100    98   ar
    16   100   102   ar
    17    98    99   ar
    18    96    95    2
    19   114   113    1
    20   104   103    1
    21   104   105    1
    22   126   127    1
    23   102   101   ar
    24    95   103   am
    25    95    94    1
    26    99   101   ar
    27   105   112   am
    28   105   106    2
    29    94    93    1
    30   112   113    1
    31   118   117   ar
    32   113   116    1
    33   127   128    1
    34    93    87   am
    35   157   158    2
    36   157   156    1
    37   117   116    1
    38   117   119   ar
    39    91    90    1
    40    87    88    2
    41    87    86    1
    42   156   155    1
    43   156   159    1
    44    89    86    1
    45    89    90    1
    46    86    85    1
    47    90    92    1
    48   138   139    1
    49    83    84   ar
    50    83    81   ar
    51   159   160    1
    52   146   144   am
    53   131   132    2
    54   131   130    1
    55    84    82   ar
    56   139   140    1
    57   139   142    1
    58    77    76    2
    59    81    79   ar
    60    85    76   am
    61   143   144    1
    62   143   142    1
    63   162   160    1
    64   144   145    2
    65   130   133    1
    66   130   129    1
    67   160   161    1
    68    76    75    1
    69   140   141    2
    70   140   147   am
    71   149   150    2
    72   149   148    1
    73    82    80   ar
    74    72    71   ar
    75   147   148    1
    76   133   134    1
    77    79    80   ar
    78    79    78    1
    79   148   151    1
    80    78    75    1
    81    75    74    1
    82    71    73   ar
    83    71    70    1
    84   134   135    1
    85   153   152    2
    86    53    51    1
    87    74    67   am
    88     4     3    2
    89    70    69    1
    90   135   136    1
    91     7     5    1
    92   152   151    1
    93   152   154   am
    94    47    48    1
    95   163   164    1
    96     6     8    1
    97     6     5    1
    98    69    66    1
    99    67    68    2
   100    67    66    1
   101    48    51    1
   102    48    49    1
   103     2     3    1
   104     2     5    1
   105     2     1    1
   106   167   164    1
   107     3     9   am
   108    51    52    1
   109   136   137    1
   110    66    65    1
   111   164   165    1
   112    49    50    2
   113     9    10    1
   114   166   165    2
   115    10    11    1
   116   165   168   am
   117    37    34    1
   118    65    56   am
   119    33    34    1
   120    34    35    1
   121    57    56    2
   122   168   169    1
   123    56    55    1
   124    11    13   am
   125    11    12    2
   126    13    14    1
   127   172   169    1
   128   172   173    1
   129    31    30    1
   130    16    15    2
   131    58    55    1
   132    58    59    1
   133    29    28    2
   134   169   170    1
   135   175   173   ar
   136    30    32    1
   137    30    27    1
   138    55    54    1
   139    35    36    2
   140   173   174   ar
   141   171   170    2
   142    15    14    1
   143    15    22   am
   144    28    27    1
   145    14    17    1
   146    59    60   ar
   147    59    61   ar
   148    60    62   ar
   149    17    18    1
   150    27    26    1
   151    22    23    1
   152    23    24    1
   153    61    63   ar
   154    62    64   ar
   155    18    19    1
   156    19    21   ar
   157    19    20   ar
   158    24    25    2
   159    63    64   ar
   160    46    45    1
   161    38    39    1
   162    44    45    1
   163    44    43    1
   164    42    39    1
   165    42    43    1
   166    39    40    1
   167    40    41    2
