@<TRIPOS>MOLECULE
tmp/2b5jA00.pdb
 176 174 0 0 0
SMALL
GASTEIGER

@<TRIPOS>ATOM
      1  N        140.3080  -17.1620   77.1310 N.3    95  PRO95      -0.2116
      2  CA       139.6430  -17.9870   76.1290 C.3    95  PRO95       0.1372
      3  C        138.6500  -18.9340   76.7700 C.2    95  PRO95       0.2244
      4  O        139.0360  -19.9440   77.3520 O.2    95  PRO95      -0.2868
      5  CB       140.8080  -18.7270   75.4520 C.3    95  PRO95       0.0268
      6  CG       141.9460  -18.6110   76.4260 C.3    95  PRO95       0.0207
      7  CD       141.7680  -17.2200   76.9630 C.3    95  PRO95       0.0892
      8  N        136.1820  -23.3790   72.0200 N.3   100  LEU100     -0.1231
      9  CA       137.4360  -23.9760   71.5760 C.3   100  LEU100      0.1693
     10  C        137.0580  -25.0260   70.5510 C.2   100  LEU100      0.2592
     11  O        135.9740  -25.5990   70.6150 O.2   100  LEU100     -0.2718
     12  CB       138.1640  -24.6460   72.7420 C.3   100  LEU100      0.0284
     13  CG       139.0690  -23.8150   73.6450 C.3   100  LEU100      0.0019
     14  CD1      139.4570  -24.6210   74.8680 C.3   100  LEU100      0.0001
     15  CD2      140.3010  -23.4090   72.8810 C.3   100  LEU100      0.0001
     16  N        137.9550  -25.2830   69.6070 N.am  101  LYS101     -0.1966
     17  CA       137.6910  -26.2630   68.5560 C.3   101  LYS101      0.1728
     18  C        138.0900  -27.6790   68.9100 C.2   101  LYS101      0.2616
     19  O        139.2440  -27.9360   69.2610 O.2   101  LYS101     -0.2715
     20  CB       138.4240  -25.9000   67.2640 C.3   101  LYS101      0.0311
     21  CG       137.9440  -24.6530   66.5310 C.3   101  LYS101      0.0038
     22  CD       138.6530  -24.6240   65.1770 C.3   101  LYS101      0.0206
     23  CE       138.4450  -23.3480   64.3860 C.3   101  LYS101      0.1093
     24  NZ       139.0610  -23.5030   63.0260 N.3   101  LYS101     -0.1314
     25  N        137.1370  -28.5990   68.8060 N.am  102  LYS102     -0.1963
     26  CA       137.4450  -29.9900   69.0720 C.3   102  LYS102      0.1728
     27  C        138.6260  -30.2460   68.1590 C.2   102  LYS102      0.2616
     28  O        138.4930  -30.2590   66.9390 O.2   102  LYS102     -0.2715
     29  CB       136.2540  -30.8980   68.7260 C.3   102  LYS102      0.0311
     30  CG       135.7250  -30.7940   67.2920 C.3   102  LYS102      0.0038
     31  CD       134.5050  -31.7050   67.1190 C.3   102  LYS102      0.0206
     32  CE       134.1130  -31.8870   65.6560 C.3   102  LYS102      0.1093
     33  NZ       132.9520  -32.8250   65.5430 N.3   102  LYS102     -0.1314
     34  N        139.7950  -30.3950   68.7630 N.am  103  LYS103     -0.1977
     35  CA       141.0110  -30.6200   68.0070 C.3   103  LYS103      0.1596
     36  C        141.5100  -32.0390   68.2310 C.2   103  LYS103      0.2287
     37  O        141.1430  -32.6920   69.2130 O.2   103  LYS103     -0.2864
     38  CB       142.0760  -29.6180   68.4450 C.3   103  LYS103      0.0298
     39  CG       142.6380  -28.7620   67.3170 C.3   103  LYS103      0.0038
     40  CD       141.5260  -28.0200   66.5680 C.3   103  LYS103      0.0206
     41  CE       142.0880  -27.1670   65.4260 C.3   103  LYS103      0.1093
     42  NZ       141.0010  -26.6350   64.5560 N.3   103  LYS103     -0.1314
     43  N        146.4980  -32.0030   71.1280 N.3   106  VAL106     -0.1245
     44  CA       146.8300  -30.7190   71.7310 C.3   106  VAL106      0.1561
     45  C        148.0030  -30.7970   72.6980 C.2   106  VAL106      0.2260
     46  O        148.0180  -31.6250   73.6060 O.2   106  VAL106     -0.2867
     47  CB       145.6200  -30.1600   72.4980 C.3   106  VAL106      0.0252
     48  CG1      146.0150  -28.9120   73.2640 C.3   106  VAL106      0.0019
     49  CG2      144.4870  -29.8810   71.5310 C.3   106  VAL106      0.0019
     50  N        150.7100  -28.3950   75.2750 N.3   108  VAL108     -0.1245
     51  CA       150.8770  -27.1020   75.9460 C.3   108  VAL108      0.1561
     52  C        152.3760  -26.9330   76.1680 C.2   108  VAL108      0.2260
     53  O        153.1080  -27.9160   76.1850 O.2   108  VAL108     -0.2867
     54  CB       150.1510  -27.0240   77.3100 C.3   108  VAL108      0.0252
     55  CG1      148.8110  -27.7260   77.2260 C.3   108  VAL108      0.0019
     56  CG2      151.0190  -27.5990   78.4040 C.3   108  VAL108      0.0019
     57  N        147.2880  -24.1620   65.4100 N.3   179  VAL179     -0.1245
     58  CA       146.7420  -23.0280   66.1130 C.3   179  VAL179      0.1561
     59  C        147.5880  -22.8830   67.3730 C.2   179  VAL179      0.2260
     60  O        148.2230  -23.8520   67.8100 O.2   179  VAL179     -0.2867
     61  CB       145.2910  -23.2920   66.4990 C.3   179  VAL179      0.0252
     62  CG1      144.6820  -22.0530   67.1060 C.3   179  VAL179      0.0019
     63  CG2      144.5160  -23.7400   65.2770 C.3   179  VAL179      0.0019
     64  N        147.1780  -20.7170   71.1340 N.3   181  TYR181     -0.1241
     65  CA       146.6480  -19.7320   72.0590 C.3   181  TYR181      0.1605
     66  C        147.8680  -19.3800   72.8980 C.2   181  TYR181      0.2264
     67  O        148.6700  -20.2580   73.2310 O.2   181  TYR181     -0.2867
     68  CB       145.5840  -20.3480   72.9680 C.3   181  TYR181      0.0534
     69  CG       144.2570  -20.6330   72.2920 C.ar  181  TYR181     -0.0201
     70  CD1      144.1760  -21.4610   71.1680 C.ar  181  TYR181     -0.0009
     71  CD2      143.0710  -20.0760   72.7860 C.ar  181  TYR181     -0.0009
     72  CE1      142.9450  -21.7250   70.5550 C.ar  181  TYR181      0.0417
     73  CE2      141.8380  -20.3340   72.1800 C.ar  181  TYR181      0.0417
     74  CZ       141.7790  -21.1560   71.0660 C.ar  181  TYR181      0.1957
     75  OH       140.5520  -21.3910   70.4620 O.3   181  TYR181     -0.2866
     76  N        152.5960  -19.5370   79.1380 N.3   186  ASP186     -0.1239
     77  CA       152.1240  -20.7240   78.4500 C.3   186  ASP186      0.1674
     78  C        151.8180  -20.5460   76.9730 C.2   186  ASP186      0.2266
     79  O        151.6370  -19.4280   76.4880 O.2   186  ASP186     -0.2867
     80  CB       150.9030  -21.2950   79.1810 C.3   186  ASP186      0.1410
     81  CG       151.2180  -21.6990   80.6260 C.2   186  ASP186      0.3668
     82  OD1      152.4070  -21.6530   81.0080 O.co2 186  ASP186     -0.2456
     83  OD2      150.2840  -22.0650   81.3790 O.co2 186  ASP186     -0.2456
     84  N        149.5220  -22.8830   74.1180 N.3   188  TYR188     -0.1227
     85  CA       148.6520  -23.9810   73.8490 C.3   188  TYR188      0.1736
     86  C        148.5980  -24.2570   72.3270 C.2   188  TYR188      0.2595
     87  O        147.9440  -23.5320   71.6020 O.2   188  TYR188     -0.2718
     88  CB       147.3080  -23.7270   74.4680 C.3   188  TYR188      0.0548
     89  CG       147.4880  -23.2260   75.8790 C.ar  188  TYR188     -0.0200
     90  CD1      146.5710  -22.3430   76.4490 C.ar  188  TYR188     -0.0009
     91  CD2      148.5890  -23.6100   76.6360 C.ar  188  TYR188     -0.0009
     92  CE1      146.7490  -21.8630   77.7510 C.ar  188  TYR188      0.0417
     93  CE2      148.7810  -23.1390   77.9240 C.ar  188  TYR188      0.0417
     94  CZ       147.8620  -22.2720   78.4810 C.ar  188  TYR188      0.1957
     95  OH       148.0340  -21.8110   79.7730 O.3   188  TYR188     -0.2866
     96  N        149.2810  -25.3010   71.8890 N.am  189  VAL189     -0.1966
     97  CA       149.3320  -25.6590   70.4600 C.3   189  VAL189      0.1727
     98  C        148.3050  -26.7340   70.1240 C.2   189  VAL189      0.2616
     99  O        148.2530  -27.7960   70.7440 O.2   189  VAL189     -0.2715
    100  CB       150.7090  -26.2070   70.0540 C.3   189  VAL189      0.0290
    101  CG1      150.8190  -26.3560   68.5440 C.3   189  VAL189      0.0023
    102  CG2      151.8040  -25.2950   70.5790 C.3   189  VAL189      0.0023
    103  N        147.4810  -26.4590   69.1150 N.am  190  GLY190     -0.1955
    104  CA       146.4600  -27.4060   68.6860 C.3   190  GLY190      0.1869
    105  C        146.5620  -27.8080   67.2190 C.2   190  GLY190      0.2309
    106  O        146.8500  -26.9740   66.3620 O.2   190  GLY190     -0.2863
    107  N        143.7180  -30.8980   81.6530 N.3   227  PHE227     -0.1227
    108  CA       144.4410  -29.8270   82.3410 C.3   227  PHE227      0.1736
    109  C        143.6060  -29.0190   83.3240 C.2   227  PHE227      0.2595
    110  O        142.5420  -28.4950   82.9960 O.2   227  PHE227     -0.2718
    111  CB       145.0080  -28.8760   81.3070 C.3   227  PHE227      0.0547
    112  CG       145.5950  -29.5770   80.1150 C.ar  227  PHE227     -0.0202
    113  CD1      146.9730  -29.5900   79.9050 C.ar  227  PHE227     -0.0042
    114  CD2      144.7740  -30.2460   79.2070 C.ar  227  PHE227     -0.0042
    115  CE1      147.5270  -30.2460   78.8020 C.ar  227  PHE227     -0.0003
    116  CE2      145.3200  -30.9030   78.1020 C.ar  227  PHE227     -0.0003
    117  CZ       146.6940  -30.9070   77.9000 C.ar  227  PHE227     -0.0000
    118  N        144.0760  -28.9410   84.5580 N.am  228  LEU228     -0.1966
    119  CA       143.3970  -28.1050   85.5260 C.3   228  LEU228      0.1728
    120  C        143.8860  -26.7510   85.0420 C.2   228  LEU228      0.2616
    121  O        145.0440  -26.3810   85.2460 O.2   228  LEU228     -0.2715
    122  CB       143.8840  -28.3840   86.9530 C.3   228  LEU228      0.0311
    123  CG       143.3880  -27.4500   88.0720 C.3   228  LEU228      0.0022
    124  CD1      141.8950  -27.1340   87.9310 C.3   228  LEU228      0.0001
    125  CD2      143.6670  -28.1270   89.4100 C.3   228  LEU228      0.0001
    126  N        143.0000  -26.0350   84.3630 N.am  229  TRP229     -0.1974
    127  CA       143.3410  -24.7380   83.8000 C.3   229  TRP229      0.1640
    128  C        142.3730  -23.6300   84.1840 C.2   229  TRP229      0.2290
    129  O        141.1690  -23.7080   83.9200 O.2   229  TRP229     -0.2864
    130  CB       143.3860  -24.8350   82.2760 C.3   229  TRP229      0.0576
    131  CG       143.6870  -23.5450   81.5800 C.ar  229  TRP229      0.0006
    132  CD1      144.8960  -22.9120   81.5060 C.ar  229  TRP229      0.0946
    133  CD2      142.7650  -22.7350   80.8420 C.ar  229  TRP229      0.0152
    134  NE1      144.7840  -21.7610   80.7640 N.ar  229  TRP229     -0.2442
    135  CE2      143.4870  -21.6290   80.3450 C.ar  229  TRP229      0.0810
    136  CE3      141.3990  -22.8370   80.5540 C.ar  229  TRP229      0.0012
    137  CZ2      142.8880  -20.6310   79.5720 C.ar  229  TRP229      0.0191
    138  CZ3      140.8050  -21.8440   79.7880 C.ar  229  TRP229      0.0001
    139  CH2      141.5520  -20.7560   79.3050 C.ar  229  TRP229      0.0015
    140  N        139.8910  -29.4340   81.5200 N.3   234  LEU234     -0.1231
    141  CA       139.9580  -29.5180   80.0600 C.3   234  LEU234      0.1693
    142  C        140.3390  -30.8610   79.4650 C.2   234  LEU234      0.2592
    143  O        141.5230  -31.2280   79.4370 O.2   234  LEU234     -0.2718
    144  CB       140.9830  -28.4990   79.5110 C.3   234  LEU234      0.0284
    145  CG       140.6560  -27.0120   79.5570 C.3   234  LEU234      0.0019
    146  CD1      141.8420  -26.2050   79.0820 C.3   234  LEU234      0.0001
    147  CD2      139.4320  -26.7020   78.7210 C.3   234  LEU234      0.0001
    148  N        139.3480  -31.6140   78.9990 N.am  235  HIS235     -0.1962
    149  CA       139.6170  -32.9020   78.3670 C.3   235  HIS235      0.1772
    150  C        139.6640  -32.6420   76.8660 C.2   235  HIS235      0.2462
    151  O        139.3300  -31.5430   76.4180 O.2   235  HIS235     -0.2730
    152  CB       138.5160  -33.9020   78.6790 C.3   235  HIS235      0.0785
    153  CG       138.4330  -34.2200   80.1720 C.ar  235  HIS235      0.0821
    154  ND1      138.5710  -35.4990   80.6670 N.ar  235  HIS235     -0.2267
    155  CD2      138.2510  -33.4180   81.2490 C.ar  235  HIS235      0.1154
    156  CE1      138.4790  -35.4710   81.9850 C.ar  235  HIS235      0.1986
    157  NE2      138.2860  -34.2200   82.3640 N.ar  235  HIS235     -0.2212
    158  N        140.0670  -33.6290   76.0660 N.am  236  PRO236     -0.2727
    159  CA       140.1460  -33.3770   74.6200 C.3   236  PRO236      0.1402
    160  C        138.8200  -33.6360   73.8870 C.2   236  PRO236      0.2269
    161  O        138.7960  -33.6930   72.6470 O.2   236  PRO236     -0.2865
    162  CB       141.1990  -34.3370   74.1200 C.3   236  PRO236      0.0296
    163  CG       141.1560  -35.4730   75.0760 C.3   236  PRO236      0.0237
    164  CD       140.7860  -34.8790   76.4090 C.3   236  PRO236      0.0939
    165  N        132.9310  -29.2350   72.9210 N.3   318  TYR318     -0.1241
    166  CA       133.5660  -28.1430   72.2080 C.3   318  TYR318      0.1605
    167  C        132.8090  -27.7010   70.9570 C.2   318  TYR318      0.2264
    168  O        131.7980  -28.3020   70.5820 O.2   318  TYR318     -0.2867
    169  CB       134.9990  -28.5330   71.8710 C.3   318  TYR318      0.0534
    170  CG       135.8410  -28.7310   73.1130 C.ar  318  TYR318     -0.0201
    171  CD1      136.4680  -29.9440   73.3740 C.ar  318  TYR318     -0.0009
    172  CD2      136.0110  -27.6980   74.0290 C.ar  318  TYR318     -0.0009
    173  CE1      137.2520  -30.1220   74.5260 C.ar  318  TYR318      0.0417
    174  CE2      136.7880  -27.8640   75.1760 C.ar  318  TYR318      0.0417
    175  CZ       137.4060  -29.0750   75.4200 C.ar  318  TYR318      0.1957
    176  OH       138.1810  -29.2380   76.5470 O.3   318  TYR318     -0.2866
@<TRIPOS>BOND
     1    24    23    1
     2    23    22    1
     3    42    41    1
     4    22    21    1
     5    63    61    1
     6    57    58    1
     7    41    40    1
     8    33    32    1
     9    32    31    1
    10    58    61    1
    11    58    59    1
    12   106   105    2
    13    61    62    1
    14    21    20    1
    15    40    39    1
    16    28    27    2
    17    31    30    1
    18   105   104    1
    19    20    17    1
    20    30    29    1
    21    39    38    1
    22    59    60    2
    23    35    36    1
    24    35    38    1
    25    35    34    1
    26    27    34   am
    27    27    26    1
    28    36    37    2
    29   101   100    1
    30    17    18    1
    31    17    16    1
    32   104   103    1
    33    29    26    1
    34    25    18   am
    35    25    26    1
    36    18    19    2
    37   103    98   am
    38    16    10   am
    39   100    97    1
    40   100   102    1
    41    98    97    1
    42    98    99    2
    43    97    96    1
    44    75    74    1
    45    10    11    2
    46    10     9    1
    47    72    74   ar
    48    72    70   ar
    49   168   167    2
    50   167   166    1
    51    74    73   ar
    52    43    44    1
    53    64    65    1
    54    70    69   ar
    55    49    47    1
    56     9     8    1
    57     9    12    1
    58    87    86    2
    59    44    47    1
    60    44    45    1
    61   169   166    1
    62   169   170    1
    63    96    86   am
    64    65    66    1
    65    65    68    1
    66    73    71   ar
    67   166   165    1
    68    69    71   ar
    69    69    68    1
    70    86    85    1
    71    47    48    1
    72   161   160    2
    73    45    46    2
    74    12    13    1
    75    15    13    1
    76    66    67    2
    77   170   171   ar
    78   170   172   ar
    79   171   173   ar
    80    13    14    1
    81    85    84    1
    82    85    88    1
    83   160   159    1
    84   172   174   ar
    85   162   159    1
    86   162   163    1
    87    88    89    1
    88   173   175   ar
    89   159   158    1
    90   163   164    1
    91   174   175   ar
    92    50    51    1
    93   175   176    1
    94     5     2    1
    95     5     6    1
    96    89    90   ar
    97    89    91   ar
    98    51    52    1
    99    51    54    1
   100   158   164    1
   101   158   150   am
   102     2     3    1
   103     2     1    1
   104    52    53    2
   105   151   150    2
   106     6     7    1
   107    90    92   ar
   108    79    78    2
   109    91    93   ar
   110     3     4    2
   111   150   149    1
   112     7     1    1
   113    78    77    1
   114    55    54    1
   115    54    56    1
   116    92    94   ar
   117   117   116   ar
   118   117   115   ar
   119    93    94   ar
   120   116   114   ar
   121   149   152    1
   122   149   148    1
   123    77    76    1
   124    77    80    1
   125    94    95    1
   126   152   153    1
   127   147   145    1
   128   115   113   ar
   129   148   142   am
   130   146   145    1
   131    80    81    1
   132   114   112   ar
   133   139   137   ar
   134   139   138   ar
   135   143   142    2
   136   142   141    1
   137   144   145    1
   138   144   141    1
   139   137   135   ar
   140   138   136   ar
   141   113   112   ar
   142   141   140    1
   143   112   111    1
   144   153   154   ar
   145   153   155   ar
   146   135   134   ar
   147   135   133   ar
   148   136   133   ar
   149    81    82   ar
   150    81    83   ar
   151   154   156   ar
   152   134   132   ar
   153   133   131   ar
   154   155   157   ar
   155   111   108    1
   156   132   131   ar
   157   131   130    1
   158   107   108    1
   159   156   157   ar
   160   130   127    1
   161   108   109    1
   162   110   109    2
   163   109   118   am
   164   127   128    1
   165   127   126    1
   166   129   128    2
   167   126   120   am
   168   118   119    1
   169   120   121    2
   170   120   119    1
   171   119   122    1
   172   122   123    1
   173   124   123    1
   174   123   125    1
