@<TRIPOS>MOLECULE
tmp/2b5oA00.pdb
 195 190 0 0 0
SMALL
GASTEIGER

@<TRIPOS>ATOM
      1  N         -1.8910   58.9200   -4.3830 N.3    51  SER51      -0.1217
      2  CA        -3.1320   58.1680   -4.4290 C.3    51  SER51       0.1889
      3  C         -4.2480   59.0560   -4.9050 C.2    51  SER51       0.2288
      4  O         -4.1630   60.2680   -4.8070 O.2    51  SER51      -0.2866
      5  CB        -3.5430   57.7230   -3.0330 C.3    51  SER51       0.2089
      6  OG        -2.6480   56.7640   -2.5220 O.3    51  SER51      -0.2183
      7  N        -12.7860   56.1780   -0.9470 N.3    69  ARG69      -0.1231
      8  CA       -11.7230   55.2520   -0.6590 C.3    69  ARG69       0.1694
      9  C        -10.5090   55.6080   -1.5090 C.2    69  ARG69       0.2592
     10  O        -10.6650   55.9530   -2.6980 O.2    69  ARG69      -0.2718
     11  CB       -12.0970   53.8430   -1.0520 C.3    69  ARG69       0.0321
     12  CG       -12.9250   53.1600   -0.0100 C.3    69  ARG69       0.0489
     13  CD       -14.3160   53.6880   -0.0280 C.3    69  ARG69       0.2205
     14  NE       -15.1180   52.6780    0.6310 N.pl3  69  ARG69      -0.0865
     15  CZ       -16.3250   52.8660    1.1470 C.cat  69  ARG69       0.5346
     16  NH1      -16.9420   54.0380    1.1420 N.pl3  69  ARG69       0.1354
     17  NH2      -16.8910   51.8300    1.7200 N.pl3  69  ARG69       0.1354
     18  N         -9.3300   55.4760   -0.8910 N.am   70  LEU70      -0.1966
     19  CA        -8.0620   55.7680   -1.5490 C.3    70  LEU70       0.1728
     20  C         -7.4250   54.5500   -2.2260 C.2    70  LEU70       0.2616
     21  O         -7.3950   53.4490   -1.6840 O.2    70  LEU70      -0.2715
     22  CB        -7.0510   56.3730   -0.5730 C.3    70  LEU70       0.0311
     23  CG        -7.3680   57.7340    0.0650 C.3    70  LEU70       0.0022
     24  CD1       -6.2000   58.1290    0.9920 C.3    70  LEU70       0.0001
     25  CD2       -7.5790   58.8210   -0.9770 C.3    70  LEU70       0.0001
     26  N         -6.9170   54.7940   -3.4290 N.am   71  TYR71      -0.1960
     27  CA        -6.2510   53.7990   -4.2450 C.3    71  TYR71       0.1771
     28  C         -4.9300   54.4070   -4.7060 C.2    71  TYR71       0.2620
     29  O         -4.8770   55.5540   -5.1610 O.2    71  TYR71      -0.2715
     30  CB        -7.1610   53.3950   -5.4140 C.3    71  TYR71       0.0574
     31  CG        -8.3630   52.6800   -4.8750 C.ar   71  TYR71      -0.0198
     32  CD1       -8.2970   51.3340   -4.5380 C.ar   71  TYR71      -0.0009
     33  CD2       -9.5520   53.3610   -4.6320 C.ar   71  TYR71      -0.0009
     34  CE1       -9.3970   50.6870   -3.9970 C.ar   71  TYR71       0.0417
     35  CE2      -10.6610   52.7120   -4.0960 C.ar   71  TYR71       0.0417
     36  CZ       -10.5740   51.3850   -3.7660 C.ar   71  TYR71       0.1957
     37  OH       -11.6710   50.7600   -3.2080 O.3    71  TYR71      -0.2866
     38  N         -3.8550   53.6400   -4.5460 N.am   72  SER72      -0.1950
     39  CA        -2.5390   54.1130   -4.9370 C.3    72  SER72       0.1924
     40  C         -2.5560   54.1580   -6.4560 C.2    72  SER72       0.2314
     41  O         -3.1130   53.2620   -7.1110 O.2    72  SER72      -0.2863
     42  CB        -1.4570   53.1460   -4.4620 C.3    72  SER72       0.2116
     43  OG        -1.6330   52.8370   -3.0920 O.3    72  SER72      -0.2180
     44  N         -4.8550   49.8320   -9.3540 N.3    90  CYS90      -0.1221
     45  CA        -4.6880   48.3930   -9.2050 C.3    90  CYS90       0.1808
     46  C         -5.5820   48.0170   -8.0350 C.2    90  CYS90       0.2601
     47  O         -5.2100   48.2660   -6.8710 O.2    90  CYS90      -0.2717
     48  CB        -3.2250   48.1280   -8.9040 C.3    90  CYS90       0.0970
     49  SG        -2.8800   46.3890   -8.7240 S.3    90  CYS90      -0.0800
     50  N         -6.7580   47.4740   -8.3590 N.am   91  VAL91      -0.1965
     51  CA        -7.8380   47.2600   -7.3870 C.3    91  VAL91       0.1727
     52  C         -8.1650   45.7800   -7.1370 C.2    91  VAL91       0.2616
     53  O         -8.5030   45.0170   -8.0510 O.2    91  VAL91      -0.2715
     54  CB        -9.1360   47.9440   -7.8400 C.3    91  VAL91       0.0290
     55  CG1      -10.2240   47.8590   -6.7520 C.3    91  VAL91       0.0023
     56  CG2       -8.8510   49.4180   -8.1160 C.3    91  VAL91       0.0023
     57  N         -8.0460   45.3940   -5.8690 N.am   92  ARG92      -0.1977
     58  CA        -8.3760   44.0670   -5.3910 C.3    92  ARG92       0.1597
     59  C         -9.7920   44.0670   -4.8320 C.2    92  ARG92       0.2287
     60  O        -10.1800   44.9330   -4.0380 O.2    92  ARG92      -0.2864
     61  CB        -7.4080   43.6280   -4.2780 C.3    92  ARG92       0.0334
     62  CG        -7.6270   42.2030   -3.7450 C.3    92  ARG92       0.0492
     63  CD        -6.6350   41.9090   -2.5970 C.3    92  ARG92       0.2205
     64  NE        -6.9910   42.7600   -1.4580 N.pl3  92  ARG92      -0.0865
     65  CZ        -7.8030   42.4130   -0.4680 C.cat  92  ARG92       0.5346
     66  NH1       -8.2750   41.1740   -0.3750 N.pl3  92  ARG92       0.1354
     67  NH2       -8.1620   43.3160    0.4400 N.pl3  92  ARG92       0.1354
     68  N        -12.3590   43.2040   -2.3260 N.3    94  LEU94      -0.1231
     69  CA       -12.4980   42.8050   -0.9400 C.3    94  LEU94       0.1693
     70  C        -13.7340   41.9300   -0.7260 C.2    94  LEU94       0.2592
     71  O        -14.8310   42.3090   -1.0870 O.2    94  LEU94      -0.2718
     72  CB       -12.5980   44.0690   -0.0600 C.3    94  LEU94       0.0284
     73  CG       -12.6470   43.9400    1.4750 C.3    94  LEU94       0.0019
     74  CD1      -12.0420   42.6690    2.0760 C.3    94  LEU94       0.0001
     75  CD2      -11.8230   45.0740    2.0690 C.3    94  LEU94       0.0001
     76  N        -13.5390   40.7680   -0.1170 N.am   95  GLU95      -0.1966
     77  CA       -14.5740   39.8260    0.3180 C.3    95  GLU95       0.1733
     78  C        -14.2950   39.4050    1.7600 C.2    95  GLU95       0.2616
     79  O        -13.1560   39.2340    2.1930 O.2    95  GLU95      -0.2715
     80  CB       -14.5560   38.5540   -0.5380 C.3    95  GLU95       0.0429
     81  CG       -15.3870   37.3640   -0.0520 C.3    95  GLU95       0.1163
     82  CD       -14.6660   36.3670    0.8920 C.2    95  GLU95       0.3649
     83  OE1      -15.3690   35.5900    1.5720 O.co2  95  GLU95      -0.2457
     84  OE2      -13.4170   36.3160    0.9800 O.co2  95  GLU95      -0.2457
     85  N        -15.3710   39.2310    2.5130 N.am   96  TYR96      -0.1960
     86  CA       -15.2870   38.5090    3.7670 C.3    96  TYR96       0.1771
     87  C        -16.6290   37.8550    4.1050 C.2    96  TYR96       0.2619
     88  O        -17.6280   38.0940    3.4470 O.2    96  TYR96      -0.2715
     89  CB       -14.7520   39.4190    4.8800 C.3    96  TYR96       0.0574
     90  CG       -15.6550   40.5860    5.1610 C.ar   96  TYR96      -0.0198
     91  CD1      -15.4970   41.8010    4.5060 C.ar   96  TYR96      -0.0009
     92  CD2      -16.6990   40.4660    6.0580 C.ar   96  TYR96      -0.0009
     93  CE1      -16.3460   42.8910    4.7860 C.ar   96  TYR96       0.0417
     94  CE2      -17.5400   41.5200    6.3220 C.ar   96  TYR96       0.0417
     95  CZ       -17.3630   42.7230    5.6940 C.ar   96  TYR96       0.1957
     96  OH       -18.2380   43.7360    5.9860 O.3    96  TYR96      -0.2866
     97  N        -16.6120   36.9890    5.1110 N.am   97  GLN97      -0.1977
     98  CA       -17.8150   36.3260    5.5680 C.3    97  GLN97       0.1601
     99  C        -18.1780   36.7320    6.9900 C.2    97  GLN97       0.2287
    100  O        -17.3620   36.7520    7.8860 O.2    97  GLN97      -0.2864
    101  CB       -17.6580   34.8130    5.4250 C.3    97  GLN97       0.0394
    102  CG       -17.7090   34.4650    3.9550 C.3    97  GLN97       0.0908
    103  CD       -17.6780   32.9860    3.7310 C.2    97  GLN97       0.2608
    104  OE1      -16.9140   32.2870    4.3940 O.2    97  GLN97      -0.2717
    105  NE2      -18.5430   32.4850    2.8380 N.am   97  GLN97      -0.0878
    106  N        -19.3250   36.4430   10.6360 N.3    99  PRO99      -0.2116
    107  CA       -19.1180   35.3650   11.5860 C.3    99  PRO99       0.1372
    108  C        -20.3590   34.7980   12.2390 C.2    99  PRO99       0.2244
    109  O        -20.2630   33.7860   12.9360 O.2    99  PRO99      -0.2868
    110  CB       -18.2540   36.0300   12.6620 C.3    99  PRO99       0.0268
    111  CG       -17.8480   37.3560   12.1100 C.3    99  PRO99       0.0207
    112  CD       -18.9170   37.7460   11.1880 C.3    99  PRO99       0.0892
    113  N        -19.1430   41.8250    0.0390 N.3   106  TYR106     -0.1227
    114  CA       -18.1810   42.3620   -0.9180 C.3   106  TYR106      0.1736
    115  C        -17.9430   43.8160   -0.5740 C.2   106  TYR106      0.2596
    116  O        -18.8830   44.5360   -0.2870 O.2   106  TYR106     -0.2718
    117  CB       -18.7290   42.2220   -2.3470 C.3   106  TYR106      0.0548
    118  CG       -18.7980   40.7770   -2.7360 C.ar  106  TYR106     -0.0200
    119  CD1      -17.6650   40.0880   -3.1340 C.ar  106  TYR106     -0.0009
    120  CD2      -19.9640   40.0750   -2.6020 C.ar  106  TYR106     -0.0009
    121  CE1      -17.7080   38.7390   -3.4540 C.ar  106  TYR106      0.0417
    122  CE2      -20.0150   38.7360   -2.8940 C.ar  106  TYR106      0.0417
    123  CZ       -18.8930   38.0700   -3.3140 C.ar  106  TYR106      0.1957
    124  OH       -18.9840   36.7300   -3.5950 O.3   106  TYR106     -0.2866
    125  N        -16.7010   44.2590   -0.5620 N.am  107  GLY107     -0.1942
    126  CA       -16.4490   45.6740   -0.3380 C.3   107  GLY107      0.2014
    127  C        -17.1960   46.5280   -1.3330 C.2   107  GLY107      0.2639
    128  O        -17.2940   46.1920   -2.5020 O.2   107  GLY107     -0.2714
    129  N        -17.7480   47.6330   -0.8670 N.am  108  VAL108     -0.1963
    130  CA       -18.5230   48.4970   -1.7480 C.3   108  VAL108      0.1727
    131  C        -17.6720   49.1040   -2.8750 C.2   108  VAL108      0.2616
    132  O        -17.9550   48.9160   -4.0530 O.2   108  VAL108     -0.2715
    133  CB       -19.1750   49.6460   -0.9490 C.3   108  VAL108      0.0290
    134  CG1      -19.9860   50.5170   -1.8960 C.3   108  VAL108      0.0023
    135  CG2      -20.0820   49.0910    0.1670 C.3   108  VAL108      0.0023
    136  N        -16.6210   49.8430   -2.5430 N.am  109  CYS109     -0.1954
    137  CA       -15.9090   50.5240   -3.6010 C.3   109  CYS109      0.1843
    138  C        -15.1060   49.5890   -4.5000 C.2   109  CYS109      0.2626
    139  O        -15.0870   49.7680   -5.7310 O.2   109  CYS109     -0.2714
    140  CB       -15.0050   51.6100   -3.0600 C.3   109  CYS109      0.0997
    141  SG       -14.6090   52.8290   -4.3690 S.3   109  CYS109     -0.0797
    142  N        -14.4330   48.5970   -3.9200 N.am  110  SER110     -0.1950
    143  CA       -13.6680   47.6760   -4.7550 C.3   110  SER110      0.1924
    144  C        -14.5450   46.8610   -5.7210 C.2   110  SER110      0.2314
    145  O        -14.1320   46.5600   -6.8440 O.2   110  SER110     -0.2863
    146  CB       -12.7350   46.7980   -3.9200 C.3   110  SER110      0.2116
    147  OG       -13.3520   46.0410   -2.8970 O.3   110  SER110     -0.2180
    148  N         -1.7830   44.4640   -3.9560 N.3   150  THR150     -0.1218
    149  CA        -1.9810   45.7400   -4.6550 C.3   150  THR150      0.1862
    150  C         -0.8730   46.7210   -4.2590 C.2   150  THR150      0.2287
    151  O         -0.7350   47.8110   -4.8110 O.2   150  THR150     -0.2866
    152  CB        -3.3800   46.3430   -4.3860 C.3   150  THR150      0.1770
    153  OG1       -3.6250   46.5830   -2.9900 O.3   150  THR150     -0.2211
    154  CG2       -4.4470   45.4230   -4.9050 C.3   150  THR150      0.0375
    155  N          1.4610   48.5690   -6.7190 N.3   153  ALA153     -0.1245
    156  CA         1.0110   49.6960   -7.5420 C.3   153  ALA153      0.1562
    157  C          1.9350   50.9150   -7.6510 C.2   153  ALA153      0.2260
    158  O          2.3140   51.2950   -8.7500 O.2   153  ALA153     -0.2867
    159  CB        -0.3980   50.1170   -7.0690 C.3   153  ALA153      0.0290
    160  N         -1.3150   45.5390    2.2300 N.3   252  LEU252     -0.1245
    161  CA        -2.2160   45.4590    3.3760 C.3   252  LEU252      0.1561
    162  C         -1.4410   45.4830    4.7030 C.2   252  LEU252      0.2260
    163  O         -0.3010   44.9970    4.7920 O.2   252  LEU252     -0.2867
    164  CB        -3.0860   44.2130    3.3000 C.3   252  LEU252      0.0270
    165  CG        -3.9980   44.0690    2.0800 C.3   252  LEU252      0.0019
    166  CD1       -4.5810   42.6940    2.0700 C.3   252  LEU252      0.0001
    167  CD2       -5.1390   45.0610    2.0150 C.3   252  LEU252      0.0001
    168  N          3.2240   52.7430    3.3780 N.3   290  GLU290     -0.1231
    169  CA         1.8270   53.0000    3.0030 C.3   290  GLU290      0.1699
    170  C          1.1990   51.6150    3.0220 C.2   290  GLU290      0.2592
    171  O          1.2760   50.8250    2.0700 O.2   290  GLU290     -0.2718
    172  CB         1.6540   53.5880    1.6030 C.3   290  GLU290      0.0402
    173  CG         0.2790   54.1660    1.2820 C.3   290  GLU290      0.1161
    174  CD         0.1190   55.5670    1.8690 C.2   290  GLU290      0.3649
    175  OE1        0.8720   56.4900    1.4750 O.co2 290  GLU290     -0.2457
    176  OE2       -0.7420   55.7530    2.7590 O.co2 290  GLU290     -0.2457
    177  N          0.5160   51.3570    4.1230 N.am  291  VAL291     -0.1966
    178  CA        -0.0290   50.0560    4.3960 C.3   291  VAL291      0.1727
    179  C         -1.4790   50.2630    4.7930 C.2   291  VAL291      0.2616
    180  O         -1.7980   51.2380    5.4880 O.2   291  VAL291     -0.2715
    181  CB         0.9090   49.4600    5.4660 C.3   291  VAL291      0.0290
    182  CG1        0.2430   49.3140    6.8040 C.3   291  VAL291      0.0023
    183  CG2        1.6150   48.2240    4.9390 C.3   291  VAL291      0.0023
    184  N         -2.3730   49.3890    4.3520 N.am  292  TYR292     -0.1974
    185  CA        -3.7920   49.6900    4.5070 C.3   292  TYR292      0.1639
    186  C         -4.6730   48.4520    4.6810 C.2   292  TYR292      0.2290
    187  O         -5.9000   48.5260    4.6640 O.2   292  TYR292     -0.2864
    188  CB        -4.2490   50.4830    3.2780 C.3   292  TYR292      0.0560
    189  CG        -3.7420   49.9050    1.9690 C.ar  292  TYR292     -0.0198
    190  CD1       -4.3700   48.8120    1.3680 C.ar  292  TYR292     -0.0009
    191  CD2       -2.6160   50.4350    1.3370 C.ar  292  TYR292     -0.0009
    192  CE1       -3.8770   48.2540    0.1750 C.ar  292  TYR292      0.0417
    193  CE2       -2.1440   49.8970    0.1400 C.ar  292  TYR292      0.0417
    194  CZ        -2.7710   48.8170   -0.4460 C.ar  292  TYR292      0.1957
    195  OH        -2.2500   48.3320   -1.6440 O.3   292  TYR292     -0.2866
@<TRIPOS>BOND
     1    44    45    1
     2    45    48    1
     3    45    46    1
     4    48    49    1
     5   158   157    2
     6    50    46   am
     7    50    51    1
     8    56    54    1
     9    53    52    2
    10    46    47    2
    11    54    51    1
    12    54    55    1
    13   157   156    1
    14   156   159    1
    15   156   155    1
    16    51    52    1
    17    52    57   am
    18    41    40    2
    19   145   144    2
    20    40    39    1
    21    57    58    1
    22   139   138    2
    23   144   143    1
    24    30    31    1
    25    30    27    1
    26    58    59    1
    27    58    61    1
    28    29    28    2
    29    39    38    1
    30    39    42    1
    31   154   152    1
    32     3     4    2
    33     3     2    1
    34    31    33   ar
    35    31    32   ar
    36    59    60    2
    37   151   150    2
    38   143   146    1
    39   143   142    1
    40    28    38   am
    41    28    27    1
    42   149   152    1
    43   149   150    1
    44   149   148    1
    45    33    35   ar
    46    32    34   ar
    47   138   142   am
    48   138   137    1
    49    42    43    1
    50     2     1    1
    51     2     5    1
    52   152   153    1
    53   141   140    1
    54    61    62    1
    55    27    26    1
    56    35    36   ar
    57   132   131    2
    58    34    36   ar
    59   146   147    1
    60    36    37    1
    61    62    63    1
    62   137   140    1
    63   137   136    1
    64   124   123    1
    65   121   123   ar
    66   121   119   ar
    67    26    20   am
    68   123   122   ar
    69   119   118   ar
    70     5     6    1
    71   122   120   ar
    72   131   136   am
    73   131   130    1
    74   118   120   ar
    75   118   117    1
    76    10     9    2
    77    63    64    1
    78   128   127    2
    79   117   114    1
    80    68    69    1
    81    20    21    2
    82    20    19    1
    83   134   133    1
    84   130   133    1
    85   130   129    1
    86   195   194    1
    87    19    18    1
    88    19    22    1
    89     9    18   am
    90     9     8    1
    91    64    65    2
    92   127   129   am
    93   127   126    1
    94    71    70    2
    95    11     8    1
    96    11    12    1
    97    25    23    1
    98   133   135    1
    99     7     8    1
   100    69    70    1
   101    69    72    1
   102   114   115    1
   103   114   113    1
   104    70    76   am
   105   115   125   am
   106   115   116    2
   107    22    23    1
   108   125   126    1
   109    80    81    1
   110    80    77    1
   111    65    66    1
   112    65    67    1
   113   194   193   ar
   114   194   192   ar
   115    76    77    1
   116    72    73    1
   117    81    82    1
   118    13    12    1
   119    13    14    1
   120    23    24    1
   121   193   191   ar
   122   192   190   ar
   123    77    78    1
   124    14    15    2
   125    82    84   ar
   126    82    83   ar
   127    16    15    1
   128    15    17    1
   129   173   172    1
   130   173   174    1
   131   191   189   ar
   132   190   189   ar
   133   175   174   ar
   134    73    75    1
   135    73    74    1
   136   172   169    1
   137    78    79    2
   138    78    85   am
   139   174   176   ar
   140   189   188    1
   141   167   165    1
   142   166   165    1
   143   171   170    2
   144   165   164    1
   145   160   161    1
   146    85    86    1
   147   105   103   am
   148   169   170    1
   149   169   168    1
   150   170   177   am
   151   188   185    1
   152   164   161    1
   153   161   162    1
   154    88    87    2
   155   103   102    1
   156   103   104    2
   157    86    87    1
   158    86    89    1
   159   102   101    1
   160    87    97   am
   161   177   178    1
   162   184   185    1
   163   184   179   am
   164   178   179    1
   165   178   181    1
   166    91    93   ar
   167    91    90   ar
   168   185   186    1
   169   187   186    2
   170   162   163    2
   171    93    95   ar
   172   179   180    2
   173    89    90    1
   174   183   181    1
   175    97    98    1
   176    90    92   ar
   177   101    98    1
   178   181   182    1
   179    98    99    1
   180    95    96    1
   181    95    94   ar
   182    92    94   ar
   183    99   100    2
   184   106   112    1
   185   106   107    1
   186   112   111    1
   187   107   108    1
   188   107   110    1
   189   111   110    1
   190   108   109    2
