@<TRIPOS>MOLECULE
tmp/2b5wA00.pdb
 103 101 0 0 0
SMALL
GASTEIGER

@<TRIPOS>ATOM
      1  N         19.5700   83.2670   92.6470 N.3   205  LEU205     -0.1245
      2  CA        19.7210   81.8070   92.5880 C.3   205  LEU205      0.1561
      3  C         20.5350   81.2820   93.7510 C.2   205  LEU205      0.2260
      4  O         21.6420   81.7480   94.0270 O.2   205  LEU205     -0.2867
      5  CB        20.4390   81.4160   91.2960 C.3   205  LEU205      0.0270
      6  CG        20.4150   79.9210   90.9240 C.3   205  LEU205      0.0019
      7  CD1       19.1280   79.6010   90.2050 C.3   205  LEU205      0.0001
      8  CD2       21.6480   79.5720   90.0680 C.3   205  LEU205      0.0001
      9  N         20.7150   77.2760   96.3910 N.3   207  ARG207     -0.1245
     10  CA        20.3890   75.8520   96.4660 C.3   207  ARG207      0.1563
     11  C         20.2400   75.4210   97.9330 C.2   207  ARG207      0.2260
     12  O         20.7300   74.3700   98.3370 O.2   207  ARG207     -0.2867
     13  CB        21.4080   75.0170   95.6940 C.3   207  ARG207      0.0307
     14  CG        22.8130   75.1320   96.0990 C.3   207  ARG207      0.0489
     15  CD        23.7630   74.3410   95.2090 C.3   207  ARG207      0.2205
     16  NE        25.1250   74.5260   95.6360 N.pl3 207  ARG207     -0.0865
     17  CZ        26.1830   74.0220   95.0070 C.cat 207  ARG207      0.5346
     18  NH1       26.0160   73.3140   93.8930 N.pl3 207  ARG207      0.1354
     19  NH2       27.4050   74.2470   95.4810 N.pl3 207  ARG207      0.1354
     20  N         18.0320   76.3760   92.4410 N.3   228  SER228     -0.1202
     21  CA        18.5290   75.7750   91.2140 C.3   228  SER228      0.2020
     22  C         18.2690   74.2740   91.1300 C.2   228  SER228      0.2618
     23  O         18.3300   73.6960   90.0560 O.2   228  SER228     -0.2717
     24  CB        20.0120   76.0160   91.0680 C.3   228  SER228      0.2103
     25  OG        20.8000   75.3960   92.0500 O.3   228  SER228     -0.2182
     26  N         18.0240   73.6570   92.2790 N.am  229  ARG229     -0.1979
     27  CA        17.6370   72.2280   92.3220 C.3   229  ARG229      0.1597
     28  C         16.2300   71.9980   91.7750 C.2   229  ARG229      0.2287
     29  O         15.8830   70.9020   91.3380 O.2   229  ARG229     -0.2864
     30  CB        17.7570   71.7390   93.7480 C.3   229  ARG229      0.0334
     31  CG        19.1820   71.8500   94.3320 C.3   229  ARG229      0.0492
     32  CD        19.2710   71.5720   95.7850 C.3   229  ARG229      0.2205
     33  NE        18.4330   72.5050   96.5200 N.pl3 229  ARG229     -0.0865
     34  CZ        18.1190   72.3800   97.7930 C.cat 229  ARG229      0.5346
     35  NH1       18.5990   71.3760   98.5050 N.pl3 229  ARG229      0.1354
     36  NH2       17.3420   73.2920   98.3610 N.pl3 229  ARG229      0.1354
     37  N         16.5810   75.1330   87.0370 N.3   232  PRO232     -0.2102
     38  CA        17.8590   75.4890   86.4260 C.3   232  PRO232      0.1504
     39  C         17.7590   76.7930   85.6800 C.2   232  PRO232      0.2576
     40  O         16.6940   77.2270   85.3070 O.2   232  PRO232     -0.2718
     41  CB        18.1200   74.3440   85.4360 C.3   232  PRO232      0.0282
     42  CG        17.2110   73.2270   85.8710 C.3   232  PRO232      0.0208
     43  CD        16.0220   73.8850   86.4660 C.3   232  PRO232      0.0893
     44  N         18.9150   77.4060   85.4740 N.am  233  VAL233     -0.1966
     45  CA        19.0020   78.7220   84.8800 C.3   233  VAL233      0.1727
     46  C         18.2780   78.7510   83.5220 C.2   233  VAL233      0.2616
     47  O         17.5430   79.6750   83.2280 O.2   233  VAL233     -0.2715
     48  CB        20.4710   79.1890   84.7730 C.3   233  VAL233      0.0290
     49  CG1       20.5730   80.5070   83.9570 C.3   233  VAL233      0.0023
     50  CG2       21.0970   79.3830   86.1650 C.3   233  VAL233      0.0023
     51  N         18.4850   77.7160   82.7090 N.am  234  GLU234     -0.1977
     52  CA        17.8520   77.6740   81.3820 C.3   234  GLU234      0.1602
     53  C         16.3090   77.6090   81.4250 C.2   234  GLU234      0.2287
     54  O         15.6380   77.9800   80.4590 O.2   234  GLU234     -0.2864
     55  CB        18.4870   76.5890   80.4980 C.3   234  GLU234      0.0415
     56  CG        18.0870   75.1590   80.8230 C.3   234  GLU234      0.1163
     57  CD        19.0120   74.4750   81.8030 C.2   234  GLU234      0.3649
     58  OE1       19.7820   75.1650   82.5260 O.co2 234  GLU234     -0.2457
     59  OE2       18.9610   73.2230   81.8580 O.co2 234  GLU234     -0.2457
     60  N         30.1850   78.5230   89.1230 N.3   252  PHE252     -0.1241
     61  CA        29.6580   77.2470   88.5720 C.3   252  PHE252      0.1605
     62  C         29.5980   77.3760   87.0550 C.2   252  PHE252      0.2264
     63  O         28.7490   78.0900   86.5400 O.2   252  PHE252     -0.2867
     64  CB        28.2530   76.9870   89.1390 C.3   252  PHE252      0.0534
     65  CG        27.6990   75.5720   88.9040 C.ar  252  PHE252     -0.0203
     66  CD1       28.2780   74.4510   89.4990 C.ar  252  PHE252     -0.0042
     67  CD2       26.5570   75.4010   88.1470 C.ar  252  PHE252     -0.0042
     68  CE1       27.7140   73.1690   89.2980 C.ar  252  PHE252     -0.0003
     69  CE2       25.9840   74.1350   87.9420 C.ar  252  PHE252     -0.0003
     70  CZ        26.5790   73.0230   88.5110 C.ar  252  PHE252     -0.0000
     71  N         28.4240   75.8010   84.4630 N.3   254  LYS254     -0.1231
     72  CA        27.1680   75.7020   83.7650 C.3   254  LYS254      0.1693
     73  C         26.3750   77.0240   83.7200 C.2   254  LYS254      0.2592
     74  O         25.6260   77.2670   82.7900 O.2   254  LYS254     -0.2718
     75  CB        26.2960   74.5730   84.3260 C.3   254  LYS254      0.0285
     76  CG        26.9690   73.2040   84.2100 C.3   254  LYS254      0.0035
     77  CD        26.0020   72.0670   84.5520 C.3   254  LYS254      0.0206
     78  CE        26.5270   70.7220   84.0470 C.3   254  LYS254      0.1093
     79  NZ        25.7000   69.5810   84.5270 N.3   254  LYS254     -0.1314
     80  N         26.5290   77.8560   84.7330 N.am  255  HIS255     -0.1976
     81  CA        25.8460   79.1350   84.7490 C.3   255  HIS255      0.1656
     82  C         26.3600   80.1060   83.6890 C.2   255  HIS255      0.2291
     83  O         25.5830   80.8830   83.1620 O.2   255  HIS255     -0.2864
     84  CB        25.9630   79.7500   86.1260 C.3   255  HIS255      0.0771
     85  CG        25.2230   78.9800   87.1550 C.ar  255  HIS255      0.0820
     86  ND1       25.4800   79.0990   88.4990 N.ar  255  HIS255     -0.2267
     87  CD2       24.2450   78.0490   87.0320 C.ar  255  HIS255      0.1154
     88  CE1       24.6730   78.2890   89.1620 C.ar  255  HIS255      0.1986
     89  NE2       23.9180   77.6410   88.2980 N.ar  255  HIS255     -0.2212
     90  N         36.4210   72.1410   83.8830 N.3   278  TRP278     -0.1241
     91  CA        35.3250   71.2030   83.9470 C.3   278  TRP278      0.1605
     92  C         34.7070   71.0660   82.5550 C.2   278  TRP278      0.2264
     93  O         34.1490   72.0200   82.0230 O.2   278  TRP278     -0.2867
     94  CB        34.2890   71.6420   84.9900 C.3   278  TRP278      0.0550
     95  CG        33.1630   70.6580   85.1890 C.ar  278  TRP278      0.0003
     96  CD1       33.1670   69.3260   84.8770 C.ar  278  TRP278      0.0946
     97  CD2       31.8750   70.9360   85.7340 C.ar  278  TRP278      0.0152
     98  NE1       31.9540   68.7630   85.1870 N.ar  278  TRP278     -0.2442
     99  CE2       31.1420   69.7280   85.7220 C.ar  278  TRP278      0.0810
    100  CE3       31.2580   72.0900   86.2400 C.ar  278  TRP278      0.0012
    101  CZ2       29.8290   69.6420   86.1950 C.ar  278  TRP278      0.0191
    102  CZ3       29.9530   72.0040   86.7060 C.ar  278  TRP278      0.0001
    103  CH2       29.2530   70.7890   86.6780 C.ar  278  TRP278      0.0015
@<TRIPOS>BOND
     1    54    53    2
     2    55    56    1
     3    55    52    1
     4    56    57    1
     5    52    53    1
     6    52    51    1
     7    57    59   ar
     8    57    58   ar
     9    93    92    2
    10    92    91    1
    11    51    46   am
    12    74    73    2
    13    83    82    2
    14    47    46    2
    15    46    45    1
    16    82    81    1
    17    73    72    1
    18    73    80   am
    19    72    75    1
    20    72    71    1
    21    90    91    1
    22    91    94    1
    23    49    48    1
    24    78    79    1
    25    78    77    1
    26    76    75    1
    27    76    77    1
    28    80    81    1
    29    81    84    1
    30    48    45    1
    31    48    50    1
    32    96    98   ar
    33    96    95   ar
    34    45    44    1
    35    94    95    1
    36    98    99   ar
    37    95    97   ar
    38    40    39    2
    39    41    42    1
    40    41    38    1
    41    44    39   am
    42    39    38    1
    43    99    97   ar
    44    99   101   ar
    45    97   100   ar
    46    42    43    1
    47    84    85    1
    48   101   103   ar
    49   100   102   ar
    50    38    37    1
    51    43    37    1
    52    63    62    2
    53   103   102   ar
    54    87    85   ar
    55    87    89   ar
    56    62    61    1
    57    85    86   ar
    58    69    67   ar
    59    69    70   ar
    60    67    65   ar
    61    89    88   ar
    62    86    88   ar
    63    70    68   ar
    64    61    60    1
    65    61    64    1
    66    65    64    1
    67    65    66   ar
    68    68    66   ar
    69    23    22    2
    70     8     6    1
    71     7     6    1
    72     6     5    1
    73    24    21    1
    74    24    25    1
    75    22    21    1
    76    22    26   am
    77    21    20    1
    78     5     2    1
    79    29    28    2
    80    28    27    1
    81    26    27    1
    82    27    30    1
    83     2     1    1
    84     2     3    1
    85    30    31    1
    86     3     4    2
    87    18    17    1
    88    31    32    1
    89    17    19    1
    90    17    16    2
    91    15    16    1
    92    15    14    1
    93    13    14    1
    94    13    10    1
    95    32    33    1
    96     9    10    1
    97    10    11    1
    98    33    34    2
    99    34    36    1
   100    34    35    1
   101    11    12    2
