@<TRIPOS>MOLECULE
tmp/2b67B01.pdb
 128 120 0 0 0
SMALL
GASTEIGER

@<TRIPOS>ATOM
      1  N          4.6380   38.7380   51.1670 N.3     9  ARG9       -0.1231
      2  CA         5.3120   38.7680   49.8750 C.3     9  ARG9        0.1694
      3  C          4.8050   39.9470   49.0580 C.2     9  ARG9        0.2592
      4  O          3.6010   40.0870   48.8840 O.2     9  ARG9       -0.2718
      5  CB         5.1030   37.4850   49.0900 C.3     9  ARG9        0.0321
      6  CG         5.9940   37.4300   47.8070 C.3     9  ARG9        0.0489
      7  CD         5.3230   36.7380   46.6520 C.3     9  ARG9        0.2205
      8  NE         3.9370   37.1840   46.4240 N.pl3   9  ARG9       -0.0865
      9  CZ         3.5910   38.2720   45.7410 C.cat   9  ARG9        0.5346
     10  NH1        4.5180   39.0800   45.2070 N.pl3   9  ARG9        0.1354
     11  NH2        2.3110   38.5650   45.5970 N.pl3   9  ARG9        0.1354
     12  N          5.7200   40.7860   48.5600 N.am   10  HIS10      -0.1962
     13  CA         5.3400   41.9260   47.7180 C.3    10  HIS10       0.1787
     14  C          6.2490   42.0100   46.5250 C.2    10  HIS10       0.2620
     15  O          7.3450   41.4860   46.5480 O.2    10  HIS10      -0.2715
     16  CB         5.3790   43.2630   48.5070 C.3    10  HIS10       0.0785
     17  CG         4.3960   43.3280   49.6360 C.ar   10  HIS10       0.0821
     18  ND1        4.7730   43.2290   50.9620 N.ar   10  HIS10      -0.2267
     19  CD2        3.0450   43.4620   49.6380 C.ar   10  HIS10       0.1154
     20  CE1        3.6990   43.3020   51.7310 C.ar   10  HIS10       0.1986
     21  NE2        2.6350   43.4300   50.9540 N.ar   10  HIS10      -0.2212
     22  N          5.8030   42.6820   45.4740 N.am   11  ALA11      -0.1977
     23  CA         6.7060   43.0020   44.3730 C.3    11  ALA11       0.1597
     24  C          7.6300   44.1460   44.8100 C.2    11  ALA11       0.2287
     25  O          7.2370   45.3170   44.8760 O.2    11  ALA11      -0.2864
     26  CB         5.9310   43.3780   43.1210 C.3    11  ALA11       0.0319
     27  N         10.6620   46.7680   44.4990 N.3    13  LYS13      -0.1245
     28  CA        11.2990   47.5380   43.4400 C.3    13  LYS13       0.1561
     29  C         12.4530   48.4330   43.9270 C.2    13  LYS13       0.2260
     30  O         13.2830   48.8560   43.1250 O.2    13  LYS13      -0.2867
     31  CB        10.2420   48.3560   42.6980 C.3    13  LYS13       0.0271
     32  CG         9.4220   47.4920   41.7210 C.3    13  LYS13       0.0035
     33  CD         7.9800   47.9240   41.5890 C.3    13  LYS13       0.0206
     34  CE         7.1150   46.7620   41.0430 C.3    13  LYS13       0.1093
     35  NZ         6.9780   46.6790   39.5530 N.3    13  LYS13      -0.1314
     36  N         11.2100   50.5240   33.4430 N.3    63  SER63      -0.1202
     37  CA        11.4950   50.5960   34.8690 C.3    63  SER63       0.2020
     38  C         12.2560   49.3560   35.4250 C.2    63  SER63       0.2618
     39  O         12.8790   49.4330   36.4900 O.2    63  SER63      -0.2717
     40  CB        10.1940   50.8670   35.6470 C.3    63  SER63       0.2103
     41  OG         9.7220   49.6910   36.3050 O.3    63  SER63      -0.2182
     42  N         12.2300   48.2370   34.6930 N.am   64  ASN64      -0.1974
     43  CA        13.0020   47.0380   35.0770 C.3    64  ASN64       0.1688
     44  C         14.5080   47.2460   35.0290 C.2    64  ASN64       0.2292
     45  O         15.2510   46.5680   35.7490 O.2    64  ASN64      -0.2864
     46  CB        12.6490   45.8260   34.2050 C.3    64  ASN64       0.1181
     47  CG        11.1760   45.5050   34.2250 C.2    64  ASN64       0.2629
     48  OD1       10.5260   45.6180   35.2670 O.2    64  ASN64      -0.2716
     49  ND2       10.6320   45.1130   33.0710 N.am   64  ASN64      -0.0877
     50  N         15.5870   48.3050   38.5230 N.3    67  GLN67      -0.1245
     51  CA        15.4620   47.1690   39.4380 C.3    67  GLN67       0.1566
     52  C         16.6570   46.2470   39.3270 C.2    67  GLN67       0.2260
     53  O         17.3070   45.9640   40.3340 O.2    67  GLN67      -0.2867
     54  CB        14.1640   46.4180   39.1700 C.3    67  GLN67       0.0367
     55  CG        12.9510   47.2460   39.5390 C.3    67  GLN67       0.0905
     56  CD        11.6700   46.5630   39.1920 C.2    67  GLN67       0.2608
     57  OE1       11.2990   45.5580   39.7960 O.2    67  GLN67      -0.2717
     58  NE2       10.9870   47.0920   38.2050 N.am   67  GLN67      -0.0878
     59  N         11.2650   40.4650   43.2650 N.3   148  ASN148     -0.1225
     60  CA        10.2930   40.8150   42.2480 C.3   148  ASN148      0.1785
     61  C         10.5580   39.9060   41.0710 C.2   148  ASN148      0.2597
     62  O         11.6890   39.6390   40.7620 O.2   148  ASN148     -0.2718
     63  CB        10.3990   42.2810   41.8170 C.3   148  ASN148      0.1169
     64  CG         9.1690   42.7500   41.0250 C.2   148  ASN148      0.2627
     65  OD1        9.2710   43.6170   40.1450 O.2   148  ASN148     -0.2716
     66  ND2        8.0150   42.1830   41.3300 N.am  148  ASN148     -0.0877
     67  N          9.5050   39.4350   40.4270 N.am  149  ILE149     -0.1966
     68  CA         9.6290   38.6400   39.2260 C.3   149  ILE149      0.1727
     69  C          9.5090   39.5860   38.0190 C.2   149  ILE149      0.2616
     70  O          8.6530   40.4550   37.9990 O.2   149  ILE149     -0.2715
     71  CB         8.5320   37.5530   39.1790 C.3   149  ILE149      0.0290
     72  CG1        8.7160   36.5660   40.3390 C.3   149  ILE149      0.0022
     73  CG2        8.5480   36.8200   37.8130 C.3   149  ILE149      0.0023
     74  CD1        7.4380   35.8530   40.7760 C.3   149  ILE149      0.0001
     75  N         10.3870   39.4350   37.0400 N.am  150  ILE150     -0.1963
     76  CA        10.4080   40.3140   35.8710 C.3   150  ILE150      0.1727
     77  C         10.3290   39.4900   34.5890 C.2   150  ILE150      0.2616
     78  O         11.1430   38.5990   34.3590 O.2   150  ILE150     -0.2715
     79  CB        11.6690   41.2540   35.8810 C.3   150  ILE150      0.0290
     80  CG1       11.5200   42.3030   37.0030 C.3   150  ILE150      0.0022
     81  CG2       11.8760   41.9250   34.5290 C.3   150  ILE150      0.0023
     82  CD1       12.8430   42.9800   37.4350 C.3   150  ILE150      0.0001
     83  N          9.3240   39.7930   33.7750 N.am  151  LEU151     -0.1963
     84  CA         9.1520   39.1750   32.4820 C.3   151  LEU151      0.1728
     85  C          9.5310   40.1450   31.3650 C.2   151  LEU151      0.2616
     86  O          9.6320   39.7440   30.2160 O.2   151  LEU151     -0.2715
     87  CB         7.6900   38.7640   32.2970 C.3   151  LEU151      0.0311
     88  CG         7.3920   37.3210   31.8720 C.3   151  LEU151      0.0022
     89  CD1        5.9650   37.2000   31.2940 C.3   151  LEU151      0.0001
     90  CD2        8.4470   36.6800   30.9360 C.3   151  LEU151      0.0001
     91  N          9.7290   41.4130   31.7090 N.am  152  GLY152     -0.1955
     92  CA         9.9860   42.4750   30.7190 C.3   152  GLY152      0.1869
     93  C         11.4610   42.6720   30.4360 C.2   152  GLY152      0.2309
     94  O         12.0990   43.5970   30.9740 O.2   152  GLY152     -0.2863
     95  N         12.6010   34.0240   33.3160 N.3   172  LEU172     -0.1245
     96  CA        12.2540   35.1250   34.2380 C.3   172  LEU172      0.1561
     97  C         13.5230   35.6350   34.8510 C.2   172  LEU172      0.2260
     98  O         14.4840   34.8490   35.0610 O.2   172  LEU172     -0.2867
     99  CB        11.3960   34.5880   35.4230 C.3   172  LEU172      0.0270
    100  CG         9.9670   34.0930   35.2690 C.3   172  LEU172      0.0019
    101  CD1        9.4370   33.5360   36.6060 C.3   172  LEU172      0.0001
    102  CD2        9.0450   35.2190   34.7440 C.3   172  LEU172      0.0001
    103  N          2.1390   48.1760   50.0420 N.3   184  GLU184     -0.1245
    104  CA         0.7840   47.7140   50.2860 C.3   184  GLU184      0.1567
    105  C          0.4240   46.6260   49.2590 C.2   184  GLU184      0.2260
    106  O          0.9640   46.6300   48.1530 O.2   184  GLU184     -0.2867
    107  CB        -0.2000   48.8860   50.2690 C.3   184  GLU184      0.0388
    108  CG         0.1640   50.0460   51.2650 C.3   184  GLU184      0.1160
    109  CD         0.3270   49.6020   52.7400 C.2   184  GLU184      0.3649
    110  OE1       -0.5070   48.7970   53.2270 O.co2 184  GLU184     -0.2457
    111  OE2        1.2900   50.0750   53.4150 O.co2 184  GLU184     -0.2457
    112  N         -1.1380   44.7160   46.2610 N.3   186  SER186     -0.1217
    113  CA        -1.7430   45.0700   44.9850 C.3   186  SER186      0.1889
    114  C         -3.1190   44.4200   44.8600 C.2   186  SER186      0.2288
    115  O         -3.4820   43.5370   45.6350 O.2   186  SER186     -0.2866
    116  CB        -0.8400   44.6230   43.8370 C.3   186  SER186      0.2089
    117  OG        -0.6230   43.2380   43.8990 O.3   186  SER186     -0.2183
    118  N         -6.3960   42.3150   43.9670 N.3   188  ARG188     -0.1245
    119  CA        -6.8200   40.9810   43.4770 C.3   188  ARG188      0.1563
    120  C         -8.3250   40.9980   43.2710 C.2   188  ARG188      0.2260
    121  O         -9.0480   41.5930   44.0550 O.2   188  ARG188     -0.2867
    122  CB        -6.4450   39.8460   44.4470 C.3   188  ARG188      0.0307
    123  CG        -4.9380   39.6200   44.6290 C.3   188  ARG188      0.0489
    124  CD        -4.2430   39.3090   43.2910 C.3   188  ARG188      0.2205
    125  NE        -2.8260   39.0050   43.4870 N.pl3 188  ARG188     -0.0865
    126  CZ        -1.8750   39.9300   43.5720 C.cat 188  ARG188      0.5346
    127  NH1       -0.6250   39.5640   43.7600 N.pl3 188  ARG188      0.1354
    128  NH2       -2.1890   41.2330   43.5060 N.pl3 188  ARG188      0.1354
@<TRIPOS>BOND
     1    86    85    2
     2    93    92    1
     3    93    94    2
     4    92    91    1
     5    90    88    1
     6    89    88    1
     7    85    91   am
     8    85    84    1
     9    88    87    1
    10    87    84    1
    11    84    83    1
    12    49    47   am
    13    95    96    1
    14    36    37    1
    15    83    77   am
    16    46    47    1
    17    46    43    1
    18    47    48    2
    19    96    97    1
    20    96    99    1
    21    78    77    2
    22    81    79    1
    23    77    76    1
    24    42    43    1
    25    42    38   am
    26   102   100    1
    27    97    98    2
    28    37    38    1
    29    37    40    1
    30    44    43    1
    31    44    45    2
    32   100    99    1
    33   100   101    1
    34    38    39    2
    35    40    41    1
    36    76    79    1
    37    76    75    1
    38    79    80    1
    39    80    82    1
    40    75    69   am
    41    73    71    1
    42    70    69    2
    43    69    68    1
    44    58    56   am
    45    50    51    1
    46    54    51    1
    47    54    55    1
    48    71    68    1
    49    71    72    1
    50    56    55    1
    51    56    57    2
    52    68    67    1
    53    52    51    1
    54    52    53    2
    55    35    34    1
    56    65    64    2
    57    72    74    1
    58    67    61   am
    59    62    61    2
    60    64    66   am
    61    64    63    1
    62    34    33    1
    63    61    60    1
    64    33    32    1
    65    32    31    1
    66    63    60    1
    67    60    59    1
    68    31    28    1
    69    26    23    1
    70    30    29    2
    71   120   119    1
    72   120   121    2
    73   124   125    1
    74   124   123    1
    75    28    29    1
    76    28    27    1
    77   119   118    1
    78   119   122    1
    79   125   126    2
    80   128   126    1
    81   126   127    1
    82   116   117    1
    83   116   113    1
    84    23    24    1
    85    23    22    1
    86   122   123    1
    87    24    25    2
    88   114   113    1
    89   114   115    2
    90   113   112    1
    91    10     9    1
    92    22    14   am
    93    11     9    1
    94     9     8    2
    95     8     7    1
    96    14    15    2
    97    14    13    1
    98     7     6    1
    99    13    16    1
   100    13    12    1
   101     6     5    1
   102   106   105    2
   103    16    17    1
   104    12     3   am
   105     4     3    2
   106     3     2    1
   107     5     2    1
   108   105   104    1
   109    17    19   ar
   110    17    18   ar
   111    19    21   ar
   112     2     1    1
   113   103   104    1
   114   107   104    1
   115   107   108    1
   116    21    20   ar
   117    18    20   ar
   118   108   109    1
   119   109   110   ar
   120   109   111   ar
