@<TRIPOS>MOLECULE
tmp/2b67B00.pdb
 73 72 0 0 0
SMALL
GASTEIGER

@<TRIPOS>ATOM
      1  N         12.1130   21.9030   45.8480 N.3    34  LEU34      -0.1231
      2  CA        11.1360   20.9250   46.3620 C.3    34  LEU34       0.1693
      3  C          9.7890   20.9270   45.5860 C.2    34  LEU34       0.2592
      4  O          8.9940   19.9840   45.6950 O.2    34  LEU34      -0.2718
      5  CB        10.8940   21.1410   47.8520 C.3    34  LEU34       0.0284
      6  CG        12.0920   20.8390   48.7770 C.3    34  LEU34       0.0019
      7  CD1       11.7190   21.0210   50.2520 C.3    34  LEU34       0.0001
      8  CD2       12.6880   19.4240   48.5550 C.3    34  LEU34       0.0001
      9  N          9.5640   21.9920   44.8100 N.am   35  ALA35      -0.1966
     10  CA         8.4090   22.1740   43.9400 C.3    35  ALA35       0.1713
     11  C          8.1660   20.9410   43.1030 C.2    35  ALA35       0.2458
     12  O          9.1250   20.3380   42.6320 O.2    35  ALA35      -0.2730
     13  CB         8.6520   23.3710   43.0080 C.3    35  ALA35       0.0333
     14  N          6.8800   20.5820   42.8700 N.am   36  PRO36      -0.2716
     15  CA         6.6660   19.4810   41.9290 C.3    36  PRO36       0.1536
     16  C          6.9300   20.0100   40.5180 C.2    36  PRO36       0.2599
     17  O          6.9680   21.2330   40.2940 O.2    36  PRO36      -0.2715
     18  CB         5.1760   19.1560   42.0980 C.3    36  PRO36       0.0310
     19  CG         4.5510   20.4760   42.5720 C.3    36  PRO36       0.0237
     20  CD         5.6070   21.1680   43.3700 C.3    36  PRO36       0.0939
     21  N          7.1150   19.1080   39.5770 N.am   37  SER37      -0.1936
     22  CA         7.2010   19.4880   38.1790 C.3    37  SER37       0.2055
     23  C          6.5430   18.3590   37.4340 C.2    37  SER37       0.2643
     24  O          6.4020   17.2480   37.9770 O.2    37  SER37      -0.2714
     25  CB         8.6500   19.6410   37.7420 C.3    37  SER37       0.2130
     26  OG         9.4500   18.5320   38.1580 O.3    37  SER37      -0.2179
     27  N          6.0680   18.6360   36.2250 N.am   38  ALA38      -0.1963
     28  CA         5.5170   17.5650   35.4130 C.3    38  ALA38       0.1728
     29  C          6.5450   16.4460   35.2780 C.2    38  ALA38       0.2616
     30  O          7.7360   16.7080   35.0290 O.2    38  ALA38      -0.2715
     31  CB         5.0470   18.0960   34.0710 C.3    38  ALA38       0.0334
     32  N          6.0980   15.2000   35.5190 N.am   39  HIS39      -0.1959
     33  CA         6.9730   14.0060   35.4340 C.3    39  HIS39       0.1787
     34  C          8.1780   14.0410   36.3870 C.2    39  HIS39       0.2620
     35  O          9.1410   13.2560   36.2060 O.2    39  HIS39      -0.2715
     36  CB         7.5600   13.8770   34.0270 C.3    39  HIS39       0.0785
     37  CG         6.5420   13.8420   32.9340 C.ar   39  HIS39       0.0821
     38  ND1        6.3480   14.8980   32.0660 N.ar   39  HIS39      -0.2267
     39  CD2        5.6820   12.8700   32.5450 C.ar   39  HIS39       0.1154
     40  CE1        5.4060   14.5810   31.1960 C.ar   39  HIS39       0.1986
     41  NE2        4.9850   13.3540   31.4620 N.ar   39  HIS39      -0.2212
     42  N          8.1600   14.9820   37.3320 N.am   40  ASN40      -0.1972
     43  CA         9.3370   15.2930   38.1590 C.3    40  ASN40       0.1688
     44  C         10.5520   15.5670   37.2780 C.2    40  ASN40       0.2292
     45  O         11.6690   15.1410   37.5870 O.2    40  ASN40      -0.2864
     46  CB         9.6400   14.1350   39.1260 C.3    40  ASN40       0.1181
     47  CG        10.5430   14.5400   40.2520 C.2    40  ASN40       0.2629
     48  OD1       10.4840   15.6790   40.7480 O.2    40  ASN40      -0.2716
     49  ND2       11.4120   13.6130   40.6630 N.am   40  ASN40      -0.0877
     50  N          5.3040   26.6220   32.2170 N.3   128  LEU128     -0.1231
     51  CA         4.5070   26.2630   33.3980 C.3   128  LEU128      0.1693
     52  C          5.3620   25.7800   34.5680 C.2   128  LEU128      0.2592
     53  O          5.1500   26.1750   35.7340 O.2   128  LEU128     -0.2718
     54  CB         3.4350   25.2230   33.0390 C.3   128  LEU128      0.0284
     55  CG         2.3680   25.0050   34.1340 C.3   128  LEU128      0.0019
     56  CD1        0.9590   25.0050   33.5090 C.3   128  LEU128      0.0001
     57  CD2        2.7020   23.6990   34.8070 C.3   128  LEU128      0.0001
     58  N          6.3000   24.8920   34.2610 N.am  129  ASN129     -0.1974
     59  CA         7.2740   24.4300   35.2570 C.3   129  ASN129      0.1688
     60  C          8.1180   25.5580   35.8380 C.2   129  ASN129      0.2292
     61  O          8.4270   25.5360   37.0330 O.2   129  ASN129     -0.2864
     62  CB         8.1340   23.2810   34.7180 C.3   129  ASN129      0.1181
     63  CG         7.3480   21.9810   34.6150 C.2   129  ASN129      0.2629
     64  OD1        6.9500   21.4130   35.6290 O.2   129  ASN129     -0.2716
     65  ND2        7.1060   21.5200   33.3990 N.am  129  ASN129     -0.0877
     66  N          5.8710   27.2820   38.3870 N.3   132  LEU132     -0.1245
     67  CA         5.7330   26.5250   39.6490 C.3   132  LEU132      0.1561
     68  C          6.9060   26.7890   40.5950 C.2   132  LEU132      0.2260
     69  O          6.7120   27.0370   41.7820 O.2   132  LEU132     -0.2867
     70  CB         5.6410   25.0130   39.4010 C.3   132  LEU132      0.0270
     71  CG         4.4300   24.4800   38.6300 C.3   132  LEU132      0.0019
     72  CD1        4.7120   22.9870   38.1920 C.3   132  LEU132      0.0001
     73  CD2        3.1760   24.5660   39.5130 C.3   132  LEU132      0.0001
@<TRIPOS>BOND
     1    40    41   ar
     2    40    38   ar
     3    41    39   ar
     4    38    37   ar
     5    50    51    1
     6    39    37   ar
     7    37    36    1
     8    54    51    1
     9    54    55    1
    10    51    52    1
    11    65    63   am
    12    56    55    1
    13    36    33    1
    14    31    28    1
    15    55    57    1
    16    58    52   am
    17    58    59    1
    18    52    53    2
    19    63    62    1
    20    63    64    2
    21    62    59    1
    22    30    29    2
    23    59    60    1
    24    29    28    1
    25    29    32   am
    26    28    27    1
    27    33    32    1
    28    33    34    1
    29    60    61    2
    30    35    34    2
    31    27    23   am
    32    34    42   am
    33    44    45    2
    34    44    43    1
    35    42    43    1
    36    23    24    2
    37    23    22    1
    38    25    26    1
    39    25    22    1
    40    43    46    1
    41    22    21    1
    42    72    71    1
    43    66    67    1
    44    71    70    1
    45    71    73    1
    46    46    47    1
    47    70    67    1
    48    21    16   am
    49    67    68    1
    50    47    49   am
    51    47    48    2
    52    17    16    2
    53    16    15    1
    54    68    69    2
    55    15    18    1
    56    15    14    1
    57    18    19    1
    58    19    20    1
    59    12    11    2
    60    14    11   am
    61    14    20    1
    62    13    10    1
    63    11    10    1
    64    10     9    1
    65     9     3   am
    66     3     4    2
    67     3     2    1
    68     1     2    1
    69     2     5    1
    70     5     6    1
    71     8     6    1
    72     6     7    1
