@<TRIPOS>MOLECULE
tmp/2b69A02.pdb
 87 85 0 0 0
SMALL
GASTEIGER

@<TRIPOS>ATOM
      1  N         38.3590   49.7690   35.3170 N.3    59  PRO59      -0.2102
      2  CA        36.8760   49.9220   35.2150 C.3    59  PRO59       0.1504
      3  C         36.3410   50.5090   33.8950 C.2    59  PRO59       0.2576
      4  O         36.9360   51.4710   33.3790 O.2    59  PRO59      -0.2718
      5  CB        36.5320   50.8240   36.4130 C.3    59  PRO59       0.0282
      6  CG        37.6440   50.5950   37.3780 C.3    59  PRO59       0.0208
      7  CD        38.8850   50.3570   36.5640 C.3    59  PRO59       0.0893
      8  N         35.2050   49.9580   33.4180 N.am   60  LEU60      -0.1966
      9  CA        34.5770   50.2620   32.1080 C.3    60  LEU60       0.1728
     10  C         33.0660   50.5370   32.2620 C.2    60  LEU60       0.2616
     11  O         32.3410   49.6740   32.7540 O.2    60  LEU60      -0.2715
     12  CB        34.7450   49.0670   31.1530 C.3    60  LEU60       0.0311
     13  CG        34.1860   49.2490   29.7360 C.3    60  LEU60       0.0022
     14  CD1       35.0480   50.2230   28.9230 C.3    60  LEU60       0.0001
     15  CD2       34.0580   47.9180   29.0070 C.3    60  LEU60       0.0001
     16  N         32.5950   51.7150   31.8300 N.am   61  TYR61      -0.1974
     17  CA        31.1870   52.1430   32.0140 C.3    61  TYR61       0.1639
     18  C         30.4840   52.4230   30.6760 C.2    61  TYR61       0.2290
     19  O         30.5880   53.5320   30.1460 O.2    61  TYR61      -0.2864
     20  CB        31.1280   53.3940   32.9190 C.3    61  TYR61       0.0560
     21  CG        31.5310   53.1190   34.3610 C.ar   61  TYR61      -0.0198
     22  CD1       30.5740   52.8890   35.3440 C.ar   61  TYR61      -0.0009
     23  CD2       32.8740   53.0590   34.7330 C.ar   61  TYR61      -0.0009
     24  CE1       30.9450   52.6250   36.6610 C.ar   61  TYR61       0.0417
     25  CE2       33.2510   52.7970   36.0380 C.ar   61  TYR61       0.0417
     26  CZ        32.2900   52.5760   36.9970 C.ar   61  TYR61       0.1957
     27  OH        32.6940   52.3180   38.2870 O.3    61  TYR61      -0.2866
     28  N         35.5220   40.3790   37.7680 N.3    94  LEU94      -0.1231
     29  CA        34.7680   41.1830   38.7260 C.3    94  LEU94       0.1693
     30  C         34.2290   42.4820   38.1100 C.2    94  LEU94       0.2592
     31  O         33.0690   42.8600   38.3530 O.2    94  LEU94      -0.2718
     32  CB        35.6180   41.5030   39.9710 C.3    94  LEU94       0.0284
     33  CG        35.8870   40.3800   40.9880 C.3    94  LEU94       0.0019
     34  CD1       36.8990   40.8220   42.0580 C.3    94  LEU94       0.0001
     35  CD2       34.5830   39.8840   41.6300 C.3    94  LEU94       0.0001
     36  N         35.0610   43.1640   37.3260 N.am   95  ASN95      -0.1974
     37  CA        34.6490   44.4170   36.6630 C.3    95  ASN95       0.1688
     38  C         33.4970   44.1710   35.6520 C.2    95  ASN95       0.2292
     39  O         32.5400   44.9520   35.5750 O.2    95  ASN95      -0.2864
     40  CB        35.8500   45.1190   35.9680 C.3    95  ASN95       0.1181
     41  CG        36.8550   45.7520   36.9460 C.2    95  ASN95       0.2629
     42  OD1       36.5490   45.9960   38.1130 O.2    95  ASN95      -0.2716
     43  ND2       38.0600   46.0640   36.4380 N.am   95  ASN95      -0.0877
     44  N         30.2650   43.4600   37.5540 N.3    97  GLY97      -0.1210
     45  CA        29.7990   44.7590   38.0740 C.3    97  GLY97       0.1956
     46  C         29.0430   45.5780   37.0300 C.2    97  GLY97       0.2611
     47  O         27.9930   46.2010   37.3110 O.2    97  GLY97      -0.2717
     48  N         29.5870   45.5980   35.8200 N.am   98  LEU98      -0.1979
     49  CA        28.9010   46.2170   34.6820 C.3    98  LEU98       0.1596
     50  C         27.5270   45.5520   34.3950 C.2    98  LEU98       0.2287
     51  O         26.4990   46.2430   34.2710 O.2    98  LEU98      -0.2864
     52  CB        29.8130   46.1840   33.4490 C.3    98  LEU98       0.0297
     53  CG        29.2620   46.7220   32.1210 C.3    98  LEU98       0.0022
     54  CD1       28.7830   48.1480   32.2480 C.3    98  LEU98       0.0001
     55  CD2       30.3160   46.6000   31.0250 C.3    98  LEU98       0.0001
     56  N         25.5710   43.8160   36.3530 N.3   100  LYS100     -0.1231
     57  CA        24.6660   44.1430   37.4580 C.3   100  LYS100      0.1693
     58  C         24.0470   45.5460   37.2810 C.2   100  LYS100      0.2591
     59  O         22.8260   45.7280   37.4230 O.2   100  LYS100     -0.2718
     60  CB        25.4150   44.0630   38.7860 C.3   100  LYS100      0.0285
     61  CG        24.5500   44.3150   40.0050 C.3   100  LYS100      0.0035
     62  CD        25.3730   44.3240   41.2920 C.3   100  LYS100      0.0206
     63  CE        25.4750   45.7030   41.8990 C.3   100  LYS100      0.1093
     64  NZ        26.1800   45.6940   43.2150 N.3   100  LYS100     -0.1314
     65  N         24.8830   46.5430   36.9860 N.am  101  ARG101     -0.1980
     66  CA        24.4270   47.9320   36.9030 C.3   101  ARG101      0.1597
     67  C         23.4160   48.1470   35.7610 C.2   101  ARG101      0.2287
     68  O         22.3830   48.8260   35.9510 O.2   101  ARG101     -0.2864
     69  CB        25.6160   48.8910   36.7680 C.3   101  ARG101      0.0334
     70  CG        25.2010   50.3710   36.7570 C.3   101  ARG101      0.0492
     71  CD        26.3870   51.3310   36.6820 C.3   101  ARG101      0.2205
     72  NE        27.1330   51.1910   35.4400 N.pl3 101  ARG101     -0.0865
     73  CZ        26.8110   51.7400   34.2690 C.cat 101  ARG101      0.5346
     74  NH1       25.7410   52.5260   34.1350 N.pl3 101  ARG101      0.1354
     75  NH2       27.5810   51.4970   33.2090 N.pl3 101  ARG101      0.1354
     76  N         27.4720   36.1400   41.8070 N.3   153  TYR153     -0.1241
     77  CA        26.6530   37.2910   41.3440 C.3   153  TYR153      0.1605
     78  C         25.2030   36.8980   40.9290 C.2   153  TYR153      0.2264
     79  O         24.2380   37.6600   41.1330 O.2   153  TYR153     -0.2867
     80  CB        27.3740   38.0770   40.2220 C.3   153  TYR153      0.0534
     81  CG        28.3970   39.1130   40.7080 C.ar  153  TYR153     -0.0201
     82  CD1       29.6560   38.7320   41.1810 C.ar  153  TYR153     -0.0009
     83  CD2       28.0990   40.4800   40.7010 C.ar  153  TYR153     -0.0009
     84  CE1       30.5860   39.6840   41.6400 C.ar  153  TYR153      0.0417
     85  CE2       29.0180   41.4370   41.1540 C.ar  153  TYR153      0.0417
     86  CZ        30.2630   41.0320   41.6180 C.ar  153  TYR153      0.1957
     87  OH        31.1920   41.9510   42.0660 O.3   153  TYR153     -0.2866
@<TRIPOS>BOND
     1    14    13    1
     2    15    13    1
     3    13    12    1
     4    19    18    2
     5    18    17    1
     6    55    53    1
     7    12     9    1
     8    16    17    1
     9    16    10   am
    10    17    20    1
    11     9    10    1
    12     9     8    1
    13    53    54    1
    14    53    52    1
    15    10    11    2
    16    20    21    1
    17    75    73    1
    18     4     3    2
    19     8     3   am
    20    52    49    1
    21     3     2    1
    22    74    73    1
    23    73    72    2
    24    51    50    2
    25    21    23   ar
    26    21    22   ar
    27    50    49    1
    28    49    48    1
    29    23    25   ar
    30     2     1    1
    31     2     5    1
    32     1     7    1
    33    22    24   ar
    34    72    71    1
    35    39    38    2
    36    38    37    1
    37    67    68    2
    38    67    66    1
    39    48    46   am
    40    40    37    1
    41    40    41    1
    42    25    26   ar
    43    56    57    1
    44     5     6    1
    45    43    41   am
    46     7     6    1
    47    24    26   ar
    48    37    36    1
    49    71    70    1
    50    70    69    1
    51    69    66    1
    52    66    65    1
    53    41    42    2
    54    65    58   am
    55    26    27    1
    56    46    47    2
    57    46    45    1
    58    58    59    2
    59    58    57    1
    60    36    30   am
    61    57    60    1
    62    44    45    1
    63    28    29    1
    64    30    31    2
    65    30    29    1
    66    29    32    1
    67    60    61    1
    68    32    33    1
    69    61    62    1
    70    80    81    1
    71    80    77    1
    72    83    81   ar
    73    83    85   ar
    74    81    82   ar
    75    78    79    2
    76    78    77    1
    77    33    35    1
    78    33    34    1
    79    85    86   ar
    80    82    84   ar
    81    62    63    1
    82    77    76    1
    83    86    84   ar
    84    86    87    1
    85    63    64    1
