@<TRIPOS>MOLECULE
tmp/2b69A01.pdb
 189 179 0 0 0
SMALL
GASTEIGER

@<TRIPOS>ATOM
      1  N         45.6800   32.6880   26.2750 N.3    74  ALA74      -0.1245
      2  CA        45.1460   31.3270   26.0930 C.3    74  ALA74       0.1562
      3  C         46.1940   30.2440   25.8060 C.2    74  ALA74       0.2260
      4  O         45.9470   29.0750   26.0800 O.2    74  ALA74      -0.2867
      5  CB        44.0970   31.3340   24.9780 C.3    74  ALA74       0.0290
      6  N         49.7040   28.2220   26.4580 N.3    76  PRO76      -0.2103
      7  CA        50.5890   28.0420   27.6260 C.3    76  PRO76       0.1492
      8  C         51.8950   28.8790   27.6570 C.2    76  PRO76       0.2455
      9  O         52.2100   29.4550   28.6930 O.2    76  PRO76      -0.2730
     10  CB        50.8310   26.5220   27.6690 C.3    76  PRO76       0.0282
     11  CG        49.6050   25.9400   27.0000 C.3    76  PRO76       0.0208
     12  CD        49.2720   26.9240   25.9010 C.3    76  PRO76       0.0893
     13  N         52.6590   28.9510   26.5530 N.am   77  PRO77      -0.2506
     14  CA        53.8030   29.8890   26.6170 C.3    77  PRO77       0.1487
     15  C         53.4310   31.3650   26.8830 C.2    77  PRO77       0.2276
     16  O         54.2070   32.0840   27.5330 O.2    77  PRO77      -0.2865
     17  CB        54.4950   29.7310   25.2520 C.3    77  PRO77       0.0556
     18  CG        53.7830   28.6690   24.5200 C.2    77  PRO77      -0.0078
     19  CD        52.6100   28.1810   25.3000 C.2    77  PRO77       0.0634
     20  N         50.4860   32.4660   28.5150 N.3    79  TYR79      -0.1241
     21  CA        49.9290   32.6840   29.8470 C.3    79  TYR79       0.1605
     22  C         50.9440   32.4710   30.9640 C.2    79  TYR79       0.2264
     23  O         50.7830   33.0110   32.0650 O.2    79  TYR79      -0.2867
     24  CB        48.5940   31.9540   30.0790 C.3    79  TYR79       0.0534
     25  CG        48.4930   30.4280   30.1110 C.ar   79  TYR79      -0.0201
     26  CD1       49.1460   29.6570   31.0720 C.ar   79  TYR79      -0.0009
     27  CD2       47.6040   29.7810   29.2610 C.ar   79  TYR79      -0.0009
     28  CE1       48.9650   28.2520   31.1200 C.ar   79  TYR79       0.0417
     29  CE2       47.4100   28.4130   29.3030 C.ar   79  TYR79       0.0417
     30  CZ        48.0830   27.6420   30.2390 C.ar   79  TYR79       0.1957
     31  OH        47.8720   26.2780   30.2660 O.3    79  TYR79      -0.2866
     32  N         40.5420   23.1460   30.9970 N.3   113  GLU113     -0.1245
     33  CA        41.6060   23.1100   32.0380 C.3   113  GLU113      0.1567
     34  C         41.0460   23.1100   33.4700 C.2   113  GLU113      0.2260
     35  O         41.7900   22.7560   34.3900 O.2   113  GLU113     -0.2867
     36  CB        42.6300   24.2750   31.9220 C.3   113  GLU113      0.0388
     37  CG        43.6890   24.2230   30.7940 C.3   113  GLU113      0.1160
     38  CD        44.9870   23.4200   31.0930 C.2   113  GLU113      0.3649
     39  OE1       45.7620   23.6790   32.0490 O.co2 113  GLU113     -0.2457
     40  OE2       45.2980   22.5600   30.2780 O.co2 113  GLU113     -0.2457
     41  N         51.3450   26.0940   35.4940 N.3   137  ARG137     -0.1245
     42  CA        50.1000   26.4200   34.7410 C.3   137  ARG137      0.1563
     43  C         48.9720   27.0130   35.6080 C.2   137  ARG137      0.2260
     44  O         47.8960   27.4000   35.0940 O.2   137  ARG137     -0.2867
     45  CB        49.5660   25.1620   34.0330 C.3   137  ARG137      0.0307
     46  CG        50.5740   24.4560   33.1210 C.3   137  ARG137      0.0489
     47  CD        50.0720   23.0960   32.6830 C.3   137  ARG137      0.2205
     48  NE        49.0020   23.0750   31.6740 N.pl3 137  ARG137     -0.0865
     49  CZ        49.1980   22.9830   30.3570 C.cat 137  ARG137      0.5346
     50  NH1       50.4210   23.0050   29.8460 N.pl3 137  ARG137      0.1354
     51  NH2       48.1600   22.8800   29.5350 N.pl3 137  ARG137      0.1354
     52  N         39.7720   22.4150   23.2220 N.3   167  ASN167     -0.1240
     53  CA        40.7710   22.8700   22.2210 C.3   167  ASN167      0.1653
     54  C         40.1360   23.1950   20.8620 C.2   167  ASN167      0.2266
     55  O         39.4690   22.3360   20.2540 O.2   167  ASN167     -0.2867
     56  CB        41.8650   21.7890   22.0120 C.3   167  ASN167      0.1155
     57  CG        42.6630   21.4750   23.2830 C.2   167  ASN167      0.2627
     58  OD1       42.1290   20.8690   24.2170 O.2   167  ASN167     -0.2716
     59  ND2       43.9450   21.8840   23.3160 N.am  167  ASN167     -0.0877
     60  N         52.2350   29.4320   19.7280 N.3   176  GLY176     -0.1210
     61  CA        52.8710   28.3870   20.5240 C.3   176  GLY176      0.1956
     62  C         52.0260   27.1640   20.8680 C.2   176  GLY176      0.2612
     63  O         52.5620   26.2050   21.4310 O.2   176  GLY176     -0.2717
     64  N         50.7380   27.1870   20.5210 N.am  177  ARG177     -0.1965
     65  CA        49.8800   26.0170   20.6690 C.3   177  ARG177      0.1729
     66  C         50.1990   24.9900   19.5730 C.2   177  ARG177      0.2616
     67  O         50.8910   25.2930   18.5950 O.2   177  ARG177     -0.2715
     68  CB        48.3780   26.3920   20.7100 C.3   177  ARG177      0.0348
     69  CG        47.9380   26.9920   22.0630 C.3   177  ARG177      0.0492
     70  CD        46.4730   27.4650   22.1110 C.3   177  ARG177      0.2205
     71  NE        46.3220   28.8090   21.5520 N.pl3 177  ARG177     -0.0865
     72  CZ        45.1990   29.5260   21.5980 C.cat 177  ARG177      0.5346
     73  NH1       44.1160   29.0550   22.1970 N.pl3 177  ARG177      0.1354
     74  NH2       45.1680   30.7370   21.0620 N.pl3 177  ARG177      0.1354
     75  N         49.7040   23.7650   19.7340 N.am  178  VAL178     -0.1977
     76  CA        50.2020   22.6420   18.9440 C.3   178  VAL178      0.1596
     77  C         49.7840   22.6810   17.4710 C.2   178  VAL178      0.2287
     78  O         50.5850   22.3020   16.6050 O.2   178  VAL178     -0.2864
     79  CB        49.8360   21.2600   19.5960 C.3   178  VAL178      0.0276
     80  CG1       48.3290   20.9490   19.4950 C.3   178  VAL178      0.0022
     81  CG2       50.7080   20.1430   19.0190 C.3   178  VAL178      0.0022
     82  N         51.9010   25.4040   15.6740 N.3   181  ASN181     -0.1225
     83  CA        53.3110   24.9560   15.6330 C.3   181  ASN181      0.1785
     84  C         53.5300   23.8610   14.5750 C.2   181  ASN181      0.2597
     85  O         54.4280   23.9860   13.7260 O.2   181  ASN181     -0.2718
     86  CB        53.8040   24.4300   17.0010 C.3   181  ASN181      0.1169
     87  CG        54.3900   25.5230   17.9070 C.2   181  ASN181      0.2627
     88  OD1       54.3210   26.7140   17.6120 O.2   181  ASN181     -0.2716
     89  ND2       54.9650   25.1030   19.0290 N.am  181  ASN181     -0.0877
     90  N         52.7210   22.7980   14.6200 N.am  182  PHE182     -0.1976
     91  CA        52.9070   21.6630   13.7080 C.3   182  PHE182      0.1639
     92  C         52.6670   22.0510   12.2470 C.2   182  PHE182      0.2290
     93  O         53.4200   21.6240   11.3610 O.2   182  PHE182     -0.2864
     94  CB        52.0140   20.4580   14.0500 C.3   182  PHE182      0.0560
     95  CG        52.4360   19.6580   15.2810 C.ar  182  PHE182     -0.0200
     96  CD1       53.6140   19.9280   15.9860 C.ar  182  PHE182     -0.0042
     97  CD2       51.6500   18.5830   15.6920 C.ar  182  PHE182     -0.0042
     98  CE1       53.9670   19.1610   17.1090 C.ar  182  PHE182     -0.0003
     99  CE2       51.9970   17.8190   16.8250 C.ar  182  PHE182     -0.0003
    100  CZ        53.1600   18.1060   17.5200 C.ar  182  PHE182     -0.0000
    101  N         58.0270   19.3500   16.5380 N.3   193  THR193     -0.1203
    102  CA        58.5510   19.2360   17.9010 C.3   193  THR193      0.1994
    103  C         57.4970   18.6430   18.8570 C.2   193  THR193      0.2618
    104  O         56.6650   19.3770   19.3760 O.2   193  THR193     -0.2717
    105  CB        59.0270   20.6220   18.4310 C.3   193  THR193      0.1784
    106  OG1       57.9470   21.5690   18.3790 O.3   193  THR193     -0.2211
    107  CG2       60.2210   21.1700   17.6210 C.3   193  THR193      0.0376
    108  N         57.5390   17.3260   19.0590 N.am  194  VAL194     -0.1965
    109  CA        56.6620   16.6480   20.0130 C.3   194  VAL194      0.1727
    110  C         57.2530   16.7840   21.4230 C.2   194  VAL194      0.2616
    111  O         58.4380   16.4990   21.6380 O.2   194  VAL194     -0.2715
    112  CB        56.4520   15.1560   19.6520 C.3   194  VAL194      0.0290
    113  CG1       55.5960   14.4460   20.7090 C.3   194  VAL194      0.0023
    114  CG2       55.8080   15.0230   18.2760 C.3   194  VAL194      0.0023
    115  N         56.4270   17.2390   22.3660 N.am  195  TYR195     -0.1974
    116  CA        56.8290   17.4120   23.7640 C.3   195  TYR195      0.1639
    117  C         56.4970   16.1540   24.5650 C.2   195  TYR195      0.2290
    118  O         55.3170   15.8610   24.8380 O.2   195  TYR195     -0.2864
    119  CB        56.1540   18.6380   24.4070 C.3   195  TYR195      0.0560
    120  CG        56.4060   20.0100   23.7760 C.ar  195  TYR195     -0.0198
    121  CD1       57.4610   20.2420   22.8830 C.ar  195  TYR195     -0.0009
    122  CD2       55.5850   21.0940   24.1020 C.ar  195  TYR195     -0.0009
    123  CE1       57.6700   21.5080   22.3320 C.ar  195  TYR195      0.0417
    124  CE2       55.7870   22.3540   23.5560 C.ar  195  TYR195      0.0417
    125  CZ        56.8240   22.5590   22.6710 C.ar  195  TYR195      0.1957
    126  OH        57.0220   23.8110   22.1380 O.3   195  TYR195     -0.2866
    127  N         50.1840   11.4610   25.0050 N.3   200  GLN200     -0.1245
    128  CA        49.1130   12.2820   25.5880 C.3   200  GLN200      0.1566
    129  C         48.0320   12.6010   24.5320 C.2   200  GLN200      0.2260
    130  O         48.3620   12.6640   23.3370 O.2   200  GLN200     -0.2867
    131  CB        49.6980   13.5660   26.2190 C.3   200  GLN200      0.0367
    132  CG        50.2260   14.6640   25.2580 C.3   200  GLN200      0.0905
    133  CD        51.7140   14.5440   24.8800 C.2   200  GLN200      0.2608
    134  OE1       52.2910   13.4430   24.8100 O.2   200  GLN200     -0.2717
    135  NE2       52.3280   15.6900   24.5880 N.am  200  GLN200     -0.0878
    136  N         44.3100   14.7820   23.0030 N.3   202  ARG202     -0.1245
    137  CA        43.4460   15.9760   22.9220 C.3   202  ARG202      0.1563
    138  C         42.3140   15.7310   21.8910 C.2   202  ARG202      0.2260
    139  O         42.4250   14.8320   21.0620 O.2   202  ARG202     -0.2867
    140  CB        44.2320   17.2420   22.5110 C.3   202  ARG202      0.0307
    141  CG        45.3130   17.7430   23.4960 C.3   202  ARG202      0.0489
    142  CD        44.7220   18.2590   24.8050 C.3   202  ARG202      0.2205
    143  NE        45.7130   18.9570   25.6440 N.pl3 202  ARG202     -0.0865
    144  CZ        46.5450   18.3700   26.5060 C.cat 202  ARG202      0.5346
    145  NH1       46.5560   17.0550   26.6550 N.pl3 202  ARG202      0.1354
    146  NH2       47.3860   19.1050   27.2350 N.pl3 202  ARG202      0.1354
    147  N         40.0040   18.0650   19.1170 N.3   204  PHE204     -0.1241
    148  CA        40.0500   19.3970   18.4770 C.3   204  PHE204      0.1605
    149  C         38.7530   19.7320   17.7120 C.2   204  PHE204      0.2264
    150  O         38.1540   18.8780   17.0290 O.2   204  PHE204     -0.2867
    151  CB        41.2510   19.5040   17.5240 C.3   204  PHE204      0.0534
    152  CG        42.5950   19.4920   18.2170 C.ar  204  PHE204     -0.0203
    153  CD1       43.1320   20.6470   18.7550 C.ar  204  PHE204     -0.0042
    154  CD2       43.3150   18.3200   18.3210 C.ar  204  PHE204     -0.0042
    155  CE1       44.3850   20.6170   19.4090 C.ar  204  PHE204     -0.0003
    156  CE2       44.5600   18.2900   18.9580 C.ar  204  PHE204     -0.0003
    157  CZ        45.0820   19.4360   19.4980 C.ar  204  PHE204     -0.0000
    158  N         48.7820   13.0620   20.4920 N.3   235  ILE235     -0.1245
    159  CA        49.5620   14.1340   19.8760 C.3   235  ILE235      0.1561
    160  C         50.5070   13.5960   18.7740 C.2   235  ILE235      0.2260
    161  O         50.7010   14.2600   17.7520 O.2   235  ILE235     -0.2867
    162  CB        50.3140   14.9720   20.9540 C.3   235  ILE235      0.0252
    163  CG1       49.2950   15.7960   21.7820 C.3   235  ILE235      0.0019
    164  CG2       51.3700   15.9110   20.3310 C.3   235  ILE235      0.0019
    165  CD1       48.4180   16.7740   20.9780 C.3   235  ILE235      0.0001
    166  N         56.3010   18.7930   28.7580 N.3   258  ALA258     -0.1245
    167  CA        55.8440   20.0230   29.4110 C.3   258  ALA258      0.1562
    168  C         55.4790   19.7350   30.8760 C.2   258  ALA258      0.2260
    169  O         54.8380   18.7310   31.1670 O.2   258  ALA258     -0.2867
    170  CB        54.6450   20.6080   28.6690 C.3   258  ALA258      0.0290
    171  N         51.6690   18.7830   32.2830 N.3   261  ASP261     -0.1239
    172  CA        50.8350   18.6610   31.0770 C.3   261  ASP261      0.1674
    173  C         49.6830   17.6480   31.2860 C.2   261  ASP261      0.2266
    174  O         49.9490   16.4980   31.6010 O.2   261  ASP261     -0.2867
    175  CB        51.7220   18.1620   29.9250 C.3   261  ASP261      0.1410
    176  CG        51.1310   18.4200   28.5490 C.2   261  ASP261      0.3668
    177  OD1       50.1860   19.2270   28.4020 O.co2 261  ASP261     -0.2456
    178  OD2       51.6630   17.8240   27.5920 O.co2 261  ASP261     -0.2456
    179  N         42.2200   14.1220   27.3050 N.3   265  ARG265     -0.1245
    180  CA        41.0930   15.0530   27.2270 C.3   265  ARG265      0.1563
    181  C         40.0670   14.6300   26.1620 C.2   265  ARG265      0.2260
    182  O         40.4430   14.4120   25.0020 O.2   265  ARG265     -0.2867
    183  CB        41.6150   16.4540   26.9080 C.3   265  ARG265      0.0307
    184  CG        40.5680   17.5280   26.9900 C.3   265  ARG265      0.0489
    185  CD        41.1860   18.9190   26.8430 C.3   265  ARG265      0.2205
    186  NE        41.9840   19.2870   28.0190 N.pl3 265  ARG265     -0.0865
    187  CZ        42.9000   20.2540   28.0580 C.cat 265  ARG265      0.5346
    188  NH1       43.1810   20.9930   26.9900 N.pl3 265  ARG265      0.1354
    189  NH2       43.5530   20.4930   29.1900 N.pl3 265  ARG265      0.1354
@<TRIPOS>BOND
     1    93    92    2
     2    92    91    1
     3    91    94    1
     4    91    90    1
     5    85    84    2
     6    94    95    1
     7    84    90   am
     8    84    83    1
     9    95    97   ar
    10    95    96   ar
    11    83    82    1
    12    83    86    1
    13    97    99   ar
    14    96    98   ar
    15   101   102    1
    16    78    77    2
    17    99   100   ar
    18    86    87    1
    19   150   149    2
    20    98   100   ar
    21    77    76    1
    22   151   152    1
    23   151   148    1
    24    88    87    2
    25   107   105    1
    26   149   148    1
    27   161   160    2
    28   102   105    1
    29   102   103    1
    30    87    89   am
    31   152   154   ar
    32   152   153   ar
    33   114   112    1
    34   154   156   ar
    35   106   105    1
    36   148   147    1
    37    67    66    2
    38   153   155   ar
    39   160   159    1
    40   103   108   am
    41   103   104    2
    42    76    79    1
    43    76    75    1
    44   156   157   ar
    45    81    79    1
    46   108   109    1
    47   155   157   ar
    48    80    79    1
    49    66    75   am
    50    66    65    1
    51   112   109    1
    52   112   113    1
    53    60    61    1
    54   159   158    1
    55   159   162    1
    56   109   110    1
    57    55    54    2
    58   164   162    1
    59    64    65    1
    60    64    62   am
    61    61    62    1
    62    65    68    1
    63    68    69    1
    64    54    53    1
    65    62    63    2
    66   162   163    1
    67   165   163    1
    68    74    72    1
    69   139   138    2
    70   110   111    2
    71   110   115   am
    72    71    72    2
    73    71    70    1
    74    72    73    1
    75   138   137    1
    76    56    53    1
    77    56    57    1
    78    69    70    1
    79   126   125    1
    80    53    52    1
    81   123   125   ar
    82   123   121   ar
    83   115   116    1
    84   140   137    1
    85   140   141    1
    86   125   124   ar
    87   121   120   ar
    88   137   136    1
    89    57    59   am
    90    57    58    2
    91   130   129    2
    92   141   142    1
    93   124   122   ar
    94   116   119    1
    95   116   117    1
    96   120   122   ar
    97   120   119    1
    98    18    17    1
    99    18    19    2
   100   129   128    1
   101   117   118    2
   102   135   133   am
   103   142   143    1
   104   134   133    2
   105   133   132    1
   106     5     2    1
   107   182   181    2
   108   127   128    1
   109    17    14    1
   110   132   131    1
   111    19    13    1
   112   128   131    1
   113   143   144    2
   114     3     4    2
   115     3     2    1
   116    12     6    1
   117    12    11    1
   118     2     1    1
   119   181   180    1
   120     6     7    1
   121   144   145    1
   122   144   146    1
   123    13    14    1
   124    13     8   am
   125    14    15    1
   126   185   184    1
   127   185   186    1
   128    15    16    2
   129   183   184    1
   130   183   180    1
   131   188   187    1
   132    11    10    1
   133   180   179    1
   134   178   176   ar
   135     7     8    1
   136     7    10    1
   137     8     9    2
   138   186   187    2
   139   187   189    1
   140   177   176   ar
   141    20    21    1
   142   176   175    1
   143   170   167    1
   144   166   167    1
   145    27    29   ar
   146    27    25   ar
   147    29    30   ar
   148   167   168    1
   149    51    49    1
   150    50    49    1
   151    21    24    1
   152    21    22    1
   153   175   172    1
   154    24    25    1
   155    25    26   ar
   156    30    31    1
   157    30    28   ar
   158    40    38   ar
   159    49    48    2
   160    37    38    1
   161    37    36    1
   162   168   169    2
   163    22    23    2
   164    32    33    1
   165    26    28   ar
   166   172   173    1
   167   172   171    1
   168    38    39   ar
   169   173   174    2
   170    48    47    1
   171    36    33    1
   172    33    34    1
   173    47    46    1
   174    46    45    1
   175    34    35    2
   176    45    42    1
   177    42    41    1
   178    42    43    1
   179    44    43    2
