@<TRIPOS>MOLECULE
tmp/2b6aA00.pdb
 152 151 0 0 0
SMALL
GASTEIGER

@<TRIPOS>ATOM
      1  N        142.7440  -16.6570   78.0280 N.3    95  PRO95      -0.2116
      2  CA       141.7810  -17.3990   77.2270 C.3    95  PRO95       0.1372
      3  C        140.8040  -18.1000   78.1390 C.2    95  PRO95       0.2244
      4  O        141.0110  -18.1760   79.3480 O.2    95  PRO95      -0.2868
      5  CB       142.6510  -18.3960   76.5020 C.3    95  PRO95       0.0268
      6  CG       143.9050  -17.6740   76.3290 C.3    95  PRO95       0.0207
      7  CD       144.1150  -17.0300   77.6590 C.3    95  PRO95       0.0892
      8  N        139.1420  -22.9080   73.3180 N.3   100  LEU100     -0.1231
      9  CA       140.3250  -23.5530   72.7400 C.3   100  LEU100      0.1693
     10  C        139.7710  -24.6020   71.7810 C.2   100  LEU100      0.2591
     11  O        138.7550  -25.2390   72.0710 O.2   100  LEU100     -0.2718
     12  CB       141.1590  -24.1890   73.8480 C.3   100  LEU100      0.0284
     13  CG       141.5360  -23.1470   74.9180 C.3   100  LEU100      0.0019
     14  CD1      141.7310  -23.8670   76.2310 C.3   100  LEU100      0.0001
     15  CD2      142.7980  -22.3320   74.5300 C.3   100  LEU100      0.0001
     16  N        140.4090  -24.7300   70.6270 N.am  101  LYS101     -0.1980
     17  CA       139.9930  -25.6630   69.5720 C.3   101  LYS101      0.1596
     18  C        140.5900  -27.0390   69.7720 C.2   101  LYS101      0.2287
     19  O        141.7570  -27.1750   70.1670 O.2   101  LYS101     -0.2864
     20  CB       140.4390  -25.1430   68.1950 C.3   101  LYS101      0.0298
     21  CG       140.1320  -23.6620   67.9720 C.3   101  LYS101      0.0038
     22  CD       140.4990  -23.1780   66.5930 C.3   101  LYS101      0.0206
     23  CE       140.0040  -21.7650   66.4210 C.3   101  LYS101      0.1093
     24  NZ       140.3400  -21.1730   65.1020 N.3   101  LYS101     -0.1314
     25  N        142.5660  -30.0520   69.6320 N.3   103  LYS103     -0.1245
     26  CA       143.8890  -30.3030   69.0770 C.3   103  LYS103      0.1561
     27  C        144.1250  -31.8010   69.3130 C.2   103  LYS103      0.2260
     28  O        143.5160  -32.3970   70.2070 O.2   103  LYS103     -0.2867
     29  CB       144.9660  -29.4820   69.8120 C.3   103  LYS103      0.0271
     30  CG       144.9160  -27.9650   69.6150 C.3   103  LYS103      0.0035
     31  CD       145.1810  -27.5910   68.1650 C.3   103  LYS103      0.0206
     32  CE       144.9910  -26.0890   67.9270 C.3   103  LYS103      0.1093
     33  NZ       144.9550  -25.7400   66.4570 N.3   103  LYS103     -0.1314
     34  N        149.0320  -31.6950   72.5530 N.3   106  VAL106     -0.1245
     35  CA       149.4470  -30.4810   73.2780 C.3   106  VAL106      0.1561
     36  C        150.6750  -30.8070   74.1320 C.2   106  VAL106      0.2260
     37  O        150.7860  -31.9060   74.6300 O.2   106  VAL106     -0.2867
     38  CB       148.3470  -30.0320   74.2430 C.3   106  VAL106      0.0252
     39  CG1      148.7850  -28.7970   75.0050 C.3   106  VAL106      0.0019
     40  CG2      147.0510  -29.7950   73.4870 C.3   106  VAL106      0.0019
     41  N        150.8310  -24.4770   66.4040 N.3   179  VAL179     -0.1231
     42  CA       150.2580  -23.3020   67.0310 C.3   179  VAL179      0.1692
     43  C        150.9250  -23.1840   68.4390 C.2   179  VAL179      0.2592
     44  O        151.1980  -24.1990   69.0950 O.2   179  VAL179     -0.2718
     45  CB       148.7340  -23.4700   67.0790 C.3   179  VAL179      0.0266
     46  CG1      148.3470  -24.5090   68.0790 C.3   179  VAL179      0.0020
     47  CG2      148.1030  -22.1770   67.3610 C.3   179  VAL179      0.0020
     48  N        151.1940  -21.9540   68.8870 N.am  180  ILE180     -0.1966
     49  CA       151.9010  -21.6950   70.1620 C.3   180  ILE180      0.1727
     50  C        151.2600  -20.6530   71.0830 C.2   180  ILE180      0.2616
     51  O        150.9960  -19.5330   70.6840 O.2   180  ILE180     -0.2715
     52  CB       153.3460  -21.2280   69.8640 C.3   180  ILE180      0.0290
     53  CG1      154.0540  -22.2950   69.0250 C.3   180  ILE180      0.0022
     54  CG2      154.1070  -20.9370   71.1400 C.3   180  ILE180      0.0023
     55  CD1      155.4740  -21.9400   68.7150 C.3   180  ILE180      0.0001
     56  N        151.0330  -21.0190   72.3360 N.am  181  TYR181     -0.1974
     57  CA       150.4300  -20.0990   73.2950 C.3   181  TYR181      0.1639
     58  C        151.3820  -19.6800   74.4220 C.2   181  TYR181      0.2290
     59  O        151.8830  -20.5300   75.1460 O.2   181  TYR181     -0.2864
     60  CB       149.1960  -20.7320   73.9120 C.3   181  TYR181      0.0560
     61  CG       148.6290  -19.8890   75.0160 C.ar  181  TYR181     -0.0198
     62  CD1      148.2330  -18.5740   74.7750 C.ar  181  TYR181     -0.0009
     63  CD2      148.5320  -20.3790   76.3150 C.ar  181  TYR181     -0.0009
     64  CE1      147.7590  -17.7760   75.7960 C.ar  181  TYR181      0.0417
     65  CE2      148.0560  -19.5780   77.3430 C.ar  181  TYR181      0.0417
     66  CZ       147.6700  -18.2730   77.0690 C.ar  181  TYR181      0.1957
     67  OH       147.1720  -17.4670   78.0580 O.3   181  TYR181     -0.2866
     68  N        152.9370  -23.3290   75.4930 N.3   188  TYR188     -0.1227
     69  CA       152.0630  -24.4810   75.2410 C.3   188  TYR188      0.1736
     70  C        152.0530  -24.6650   73.7210 C.2   188  TYR188      0.2595
     71  O        151.6320  -23.7660   72.9790 O.2   188  TYR188     -0.2718
     72  CB       150.6250  -24.2530   75.7290 C.3   188  TYR188      0.0548
     73  CG       150.4590  -24.2250   77.2380 C.ar  188  TYR188     -0.0200
     74  CD1      150.5780  -23.0340   77.9360 C.ar  188  TYR188     -0.0009
     75  CD2      150.2110  -25.3960   77.9700 C.ar  188  TYR188     -0.0009
     76  CE1      150.4660  -22.9920   79.3370 C.ar  188  TYR188      0.0417
     77  CE2      150.0940  -25.3690   79.3730 C.ar  188  TYR188      0.0417
     78  CZ       150.2280  -24.1570   80.0560 C.ar  188  TYR188      0.1957
     79  OH       150.1760  -24.0690   81.4470 O.3   188  TYR188     -0.2866
     80  N        152.5400  -25.8070   73.2450 N.am  189  VAL189     -0.1966
     81  CA       152.5750  -26.0330   71.8140 C.3   189  VAL189      0.1727
     82  C        151.4670  -27.0000   71.4730 C.2   189  VAL189      0.2616
     83  O        151.2330  -27.9440   72.2090 O.2   189  VAL189     -0.2715
     84  CB       153.9440  -26.5830   71.3780 C.3   189  VAL189      0.0290
     85  CG1      154.0900  -26.4930   69.8570 C.3   189  VAL189      0.0023
     86  CG2      155.0520  -25.7870   72.0500 C.3   189  VAL189      0.0023
     87  N        150.7600  -26.7360   70.3750 N.am  190  GLY190     -0.1955
     88  CA       149.6560  -27.5950   69.9570 C.3   190  GLY190      0.1869
     89  C        149.7200  -27.8930   68.4750 C.2   190  GLY190      0.2309
     90  O        150.2560  -27.0950   67.7060 O.2   190  GLY190     -0.2863
     91  N        146.7200  -30.3240   82.7880 N.3   227  PHE227     -0.1241
     92  CA       147.4270  -29.0850   83.0760 C.3   227  PHE227      0.1605
     93  C        146.5550  -28.2830   84.0540 C.2   227  PHE227      0.2264
     94  O        145.3150  -28.2720   83.9480 O.2   227  PHE227     -0.2867
     95  CB       147.6120  -28.2910   81.7880 C.3   227  PHE227      0.0534
     96  CG       148.3800  -29.0180   80.7180 C.ar  227  PHE227     -0.0203
     97  CD1      149.7510  -29.2030   80.8350 C.ar  227  PHE227     -0.0042
     98  CD2      147.7410  -29.4560   79.5540 C.ar  227  PHE227     -0.0042
     99  CE1      150.4770  -29.7980   79.8120 C.ar  227  PHE227     -0.0003
    100  CE2      148.4590  -30.0600   78.5140 C.ar  227  PHE227     -0.0003
    101  CZ       149.8270  -30.2270   78.6430 C.ar  227  PHE227     -0.0000
    102  N        146.0520  -24.5620   85.2240 N.3   229  TRP229     -0.1241
    103  CA       146.3490  -23.1670   84.8930 C.3   229  TRP229      0.1605
    104  C        145.1590  -22.2990   85.2930 C.2   229  TRP229      0.2264
    105  O        143.9990  -22.6630   85.0680 O.2   229  TRP229     -0.2867
    106  CB       146.6160  -23.1070   83.3860 C.3   229  TRP229      0.0550
    107  CG       146.5440  -21.7810   82.7400 C.ar  229  TRP229      0.0003
    108  CD1      147.5680  -20.9040   82.5520 C.ar  229  TRP229      0.0946
    109  CD2      145.4200  -21.2390   82.0510 C.ar  229  TRP229      0.0152
    110  NE1      147.1600  -19.8490   81.7690 N.ar  229  TRP229     -0.2442
    111  CE2      145.8420  -20.0320   81.4450 C.ar  229  TRP229      0.0810
    112  CE3      144.0970  -21.6550   81.8820 C.ar  229  TRP229      0.0012
    113  CZ2      144.9880  -19.2410   80.6780 C.ar  229  TRP229      0.0191
    114  CZ3      143.2480  -20.8690   81.1240 C.ar  229  TRP229      0.0001
    115  CH2      143.6980  -19.6720   80.5270 C.ar  229  TRP229      0.0015
    116  N        142.8100  -28.8450   82.9010 N.3   234  LEU234     -0.1231
    117  CA       142.7170  -29.0810   81.4660 C.3   234  LEU234      0.1693
    118  C        143.2560  -30.3940   80.9640 C.2   234  LEU234      0.2592
    119  O        144.4480  -30.6710   81.0730 O.2   234  LEU234     -0.2718
    120  CB       143.4310  -27.9570   80.7260 C.3   234  LEU234      0.0284
    121  CG       142.8600  -26.5620   80.9710 C.3   234  LEU234      0.0019
    122  CD1      144.0030  -25.5630   81.1310 C.3   234  LEU234      0.0001
    123  CD2      141.9480  -26.1840   79.8320 C.3   234  LEU234      0.0001
    124  N        142.3690  -31.1770   80.3640 N.am  235  HIS235     -0.1962
    125  CA       142.7280  -32.4720   79.8120 C.3   235  HIS235      0.1772
    126  C        142.9240  -32.3720   78.2960 C.2   235  HIS235      0.2462
    127  O        142.7110  -31.3090   77.7120 O.2   235  HIS235     -0.2730
    128  CB       141.6380  -33.4830   80.1820 C.3   235  HIS235      0.0785
    129  CG       141.5610  -33.7610   81.6550 C.ar  235  HIS235      0.0821
    130  ND1      142.2910  -34.7590   82.2650 N.ar  235  HIS235     -0.2267
    131  CD2      140.9020  -33.1190   82.6510 C.ar  235  HIS235      0.1154
    132  CE1      142.0870  -34.7190   83.5690 C.ar  235  HIS235      0.1986
    133  NE2      141.2480  -33.7320   83.8300 N.ar  235  HIS235     -0.2212
    134  N        143.3770  -33.4620   77.6420 N.am  236  PRO236     -0.2727
    135  CA       143.5720  -33.3950   76.1920 C.3   236  PRO236      0.1402
    136  C        142.2740  -33.2570   75.4180 C.2   236  PRO236      0.2269
    137  O        142.2710  -32.7920   74.2770 O.2   236  PRO236     -0.2865
    138  CB       144.2860  -34.7030   75.8860 C.3   236  PRO236      0.0296
    139  CG       145.1210  -34.8960   77.1070 C.3   236  PRO236      0.0237
    140  CD       144.1060  -34.6200   78.1950 C.3   236  PRO236      0.0939
    141  N        135.9350  -28.9600   74.2940 N.3   318  TYR318     -0.1241
    142  CA       136.5550  -27.9160   73.5290 C.3   318  TYR318      0.1605
    143  C        135.7210  -27.6000   72.2910 C.2   318  TYR318      0.2264
    144  O        134.6530  -28.2140   72.0340 O.2   318  TYR318     -0.2867
    145  CB       137.9620  -28.3240   73.1610 C.3   318  TYR318      0.0534
    146  CG       138.8150  -28.4910   74.3970 C.ar  318  TYR318     -0.0201
    147  CD1      139.5230  -29.6560   74.6240 C.ar  318  TYR318     -0.0009
    148  CD2      138.8970  -27.4810   75.3550 C.ar  318  TYR318     -0.0009
    149  CE1      140.2880  -29.8130   75.7670 C.ar  318  TYR318      0.0417
    150  CE2      139.6610  -27.6300   76.5010 C.ar  318  TYR318      0.0417
    151  CZ       140.3530  -28.7990   76.7010 C.ar  318  TYR318      0.1957
    152  OH       141.1110  -28.9620   77.8380 O.3   318  TYR318     -0.2866
@<TRIPOS>BOND
     1    24    23    1
     2    41    42    1
     3    23    22    1
     4    33    32    1
     5    22    21    1
     6    42    45    1
     7    42    43    1
     8    45    47    1
     9    45    46    1
    10    90    89    2
    11    32    31    1
    12    21    20    1
    13    31    30    1
    14    20    17    1
    15    43    48   am
    16    43    44    2
    17    89    88    1
    18    55    53    1
    19    48    49    1
    20    53    52    1
    21    26    27    1
    22    26    25    1
    23    26    29    1
    24    27    28    2
    25    17    18    1
    26    17    16    1
    27    30    29    1
    28    18    19    2
    29    85    84    1
    30    52    49    1
    31    52    54    1
    32    88    87    1
    33    49    50    1
    34    87    82   am
    35    16    10   am
    36    51    50    2
    37    50    56   am
    38    84    81    1
    39    84    86    1
    40    82    81    1
    41    82    83    2
    42    10    11    2
    43    10     9    1
    44    81    80    1
    45   144   143    2
    46   143   142    1
    47    56    57    1
    48    34    35    1
    49     9     8    1
    50     9    12    1
    51    71    70    2
    52   145   142    1
    53   145   146    1
    54    80    70   am
    55    35    36    1
    56    35    38    1
    57    57    60    1
    58    57    58    1
    59    40    38    1
    60   142   141    1
    61    70    69    1
    62    12    13    1
    63    60    61    1
    64    36    37    2
    65    38    39    1
    66   137   136    2
    67   146   147   ar
    68   146   148   ar
    69    58    59    2
    70    15    13    1
    71   147   149   ar
    72    62    61   ar
    73    62    64   ar
    74    13    14    1
    75    61    63   ar
    76    69    68    1
    77    69    72    1
    78   148   150   ar
    79   136   135    1
    80    72    73    1
    81   149   151   ar
    82    64    66   ar
    83   138   135    1
    84   138   139    1
    85   135   134    1
    86    63    65   ar
    87     6     5    1
    88     6     7    1
    89   150   151   ar
    90     5     2    1
    91   151   152    1
    92    66    65   ar
    93    66    67    1
    94   139   140    1
    95     2     1    1
    96     2     3    1
    97    73    74   ar
    98    73    75   ar
    99   134   140    1
   100   134   126   am
   101     7     1    1
   102   127   126    2
   103    74    76   ar
   104    75    77   ar
   105     3     4    2
   106   126   125    1
   107   100   101   ar
   108   100    98   ar
   109   101    99   ar
   110    76    78   ar
   111    77    78   ar
   112    98    96   ar
   113    99    97   ar
   114   125   128    1
   115   125   124    1
   116   123   121    1
   117    78    79    1
   118   128   129    1
   119   124   118   am
   120   115   113   ar
   121   115   114   ar
   122   113   111   ar
   123    96    97   ar
   124    96    95    1
   125   120   121    1
   126   120   117    1
   127   118   119    2
   128   118   117    1
   129   121   122    1
   130   114   112   ar
   131   111   110   ar
   132   111   109   ar
   133   117   116    1
   134   129   130   ar
   135   129   131   ar
   136   110   108   ar
   137    95    92    1
   138   112   109   ar
   139   109   107   ar
   140   130   132   ar
   141   108   107   ar
   142   131   133   ar
   143   107   106    1
   144    91    92    1
   145    92    93    1
   146   106   103    1
   147   132   133   ar
   148    94    93    2
   149   103   102    1
   150   103   104    1
   151   105   104    2
