@<TRIPOS>MOLECULE
tmp/2b6fA00.pdb
 93 89 0 0 0
SMALL
GASTEIGER

@<TRIPOS>ATOM
      1  N          4.0290   -2.7860   26.7440 N.3    45  LYS45      -0.1245
      2  CA         4.8610   -1.9070   25.8860 C.3    45  LYS45       0.1561
      3  C          4.2560   -1.8160   24.4740 C.2    45  LYS45       0.2260
      4  O          4.3880   -0.8130   23.7990 O.2    45  LYS45      -0.2867
      5  CB         6.2900   -2.4930   25.8400 C.3    45  LYS45       0.0271
      6  CG         7.3250   -1.3720   25.9190 C.3    45  LYS45       0.0035
      7  CD         8.7330   -1.9670   25.8570 C.3    45  LYS45       0.0206
      8  CE         9.7600   -0.8370   25.7640 C.3    45  LYS45       0.1093
      9  NZ        11.1290   -1.4170   25.6650 N.3    45  LYS45      -0.1314
     10  N          1.4580    0.7790   24.5060 N.3    48  SER48      -0.1202
     11  CA         1.9410    2.1870   24.4520 C.3    48  SER48       0.2020
     12  C          2.2030    2.5780   22.9960 C.2    48  SER48       0.2618
     13  O          1.8900    3.6720   22.5710 O.2    48  SER48      -0.2717
     14  CB         3.2370    2.3140   25.2550 C.3    48  SER48       0.2103
     15  OG         3.8860    3.5310   24.9180 O.3    48  SER48      -0.2182
     16  N          2.7720    1.6900   22.2260 N.am   49  LEU49      -0.1979
     17  CA         3.0510    2.0060   20.8010 C.3    49  LEU49       0.1596
     18  C          1.7280    2.0070   20.0250 C.2    49  LEU49       0.2287
     19  O          1.4530    2.8960   19.2440 O.2    49  LEU49      -0.2864
     20  CB         4.0110    0.9370   20.2410 C.3    49  LEU49       0.0297
     21  CG         5.4730    1.4210   20.3530 C.3    49  LEU49       0.0022
     22  CD1        6.4190    0.2150   20.3400 C.3    49  LEU49       0.0001
     23  CD2        5.8150    2.3490   19.1790 C.3    49  LEU49       0.0001
     24  N          0.2730    5.2880   20.3080 N.3    52  THR52      -0.1218
     25  CA         0.9230    6.4030   19.5640 C.3    52  THR52       0.1862
     26  C          0.4380    6.4030   18.1150 C.2    52  THR52       0.2287
     27  O          0.0120    7.4120   17.5880 O.2    52  THR52      -0.2866
     28  CB         2.4420    6.2140   19.5950 C.3    52  THR52       0.1770
     29  OG1        2.8450    5.8590   20.9100 O.3    52  THR52      -0.2211
     30  CG2        3.1280    7.5150   19.1820 C.3    52  THR52       0.0375
     31  N          4.3330   11.1530   14.9420 N.3    59  SER59      -0.1202
     32  CA         5.4410   11.1450   15.9420 C.3    59  SER59       0.2020
     33  C          6.0450    9.7380   16.0290 C.2    59  SER59       0.2619
     34  O          6.6360    9.3740   17.0260 O.2    59  SER59      -0.2717
     35  CB         4.8850   11.5390   17.3120 C.3    59  SER59       0.2103
     36  OG         4.0590   12.6850   17.1750 O.3    59  SER59      -0.2182
     37  N          5.8950    8.9420   14.9920 N.am   60  VAL60      -0.1966
     38  CA         6.4500    7.5490   15.0010 C.3    60  VAL60       0.1712
     39  C          7.4490    7.4050   13.8300 C.2    60  VAL60       0.2458
     40  O          7.0390    7.2910   12.6920 O.2    60  VAL60      -0.2730
     41  CB         5.2830    6.5600   14.8120 C.3    60  VAL60       0.0289
     42  CG1        5.6590    5.1740   15.3580 C.3    60  VAL60       0.0023
     43  CG2        4.0540    7.0830   15.5610 C.3    60  VAL60       0.0023
     44  N          8.7450    7.4280   14.0830 N.am   61  PRO61      -0.2727
     45  CA         9.7590    7.3160   12.9920 C.3    61  PRO61       0.1402
     46  C          9.8870    5.8850   12.4460 C.2    61  PRO61       0.2269
     47  O          9.4600    4.9370   13.0710 O.2    61  PRO61      -0.2865
     48  CB        11.0700    7.7830   13.6490 C.3    61  PRO61       0.0296
     49  CG        10.8900    7.5720   15.1260 C.3    61  PRO61       0.0237
     50  CD         9.3780    7.5600   15.4100 C.3    61  PRO61       0.0939
     51  N         11.8690    2.3280   10.9550 N.3    63  ILE63      -0.1245
     52  CA        12.9210    1.4490   11.5490 C.3    63  ILE63       0.1561
     53  C         13.9870    1.1920   10.4900 C.2    63  ILE63       0.2260
     54  O         13.7710    1.4110    9.3140 O.2    63  ILE63      -0.2867
     55  CB        12.3010    0.1140   11.9740 C.3    63  ILE63       0.0252
     56  CG1       11.3680   -0.4060   10.8620 C.3    63  ILE63       0.0019
     57  CG2       11.5050    0.3150   13.2640 C.3    63  ILE63       0.0019
     58  CD1       11.2120   -1.9210   10.9880 C.3    63  ILE63       0.0001
     59  N         15.4240   -5.6960   14.6860 N.3    81  GLY81      -0.1210
     60  CA        15.1100   -4.6500   15.7050 C.3    81  GLY81       0.1956
     61  C         13.6380   -4.2550   15.5540 C.2    81  GLY81       0.2612
     62  O         12.8690   -4.9440   14.9130 O.2    81  GLY81      -0.2717
     63  N         13.2400   -3.1460   16.1190 N.am   82  GLY82      -0.1942
     64  CA        11.8170   -2.7080   15.9820 C.3    82  GLY82       0.2014
     65  C         10.8680   -3.8910   16.2250 C.2    82  GLY82       0.2639
     66  O          9.7500   -3.9010   15.7490 O.2    82  GLY82      -0.2714
     67  N         11.2990   -4.8910   16.9490 N.am   83  CYS83      -0.1953
     68  CA        10.4150   -6.0640   17.2000 C.3    83  CYS83       0.1843
     69  C          9.0760   -5.5910   17.7750 C.2    83  CYS83       0.2625
     70  O          8.0250   -5.8800   17.2410 O.2    83  CYS83      -0.2714
     71  CB        11.1030   -7.0130   18.1870 C.3    83  CYS83       0.0997
     72  SG        12.8790   -7.0570   17.8380 S.3    83  CYS83      -0.0797
     73  N          9.1040   -4.8720   18.8620 N.am   84  HIS84      -0.1959
     74  CA         7.8300   -4.3900   19.4670 C.3    84  HIS84       0.1787
     75  C          7.1020   -3.4740   18.4790 C.2    84  HIS84       0.2620
     76  O          5.8890   -3.4500   18.4240 O.2    84  HIS84      -0.2715
     77  CB         8.1350   -3.6270   20.7620 C.3    84  HIS84       0.0785
     78  CG         8.4020   -4.6060   21.8750 C.ar   84  HIS84       0.0821
     79  ND1        9.5870   -5.3190   21.9680 N.ar   84  HIS84      -0.2267
     80  CD2        7.6390   -5.0060   22.9440 C.ar   84  HIS84       0.1154
     81  CE1        9.5030   -6.1050   23.0570 C.ar   84  HIS84       0.1986
     82  NE2        8.3360   -5.9530   23.6890 N.ar   84  HIS84      -0.2212
     83  N          7.8250   -2.7220   17.6950 N.am   85  ARG85      -0.1977
     84  CA         7.1540   -1.8210   16.7180 C.3    85  ARG85       0.1597
     85  C          6.3810   -2.6660   15.7010 C.2    85  ARG85       0.2287
     86  O          5.3530   -2.2600   15.1960 O.2    85  ARG85      -0.2864
     87  CB         8.2050   -0.9570   16.0030 C.3    85  ARG85       0.0334
     88  CG         7.5290    0.2570   15.3080 C.3    85  ARG85       0.0492
     89  CD         7.8970    1.5670   16.0260 C.3    85  ARG85       0.2205
     90  NE         9.3810    1.6750   16.1680 N.pl3  85  ARG85      -0.0865
     91  CZ        10.0950    2.3130   15.2780 C.cat  85  ARG85       0.5346
     92  NH1        9.5290    2.8210   14.2170 N.pl3  85  ARG85       0.1354
     93  NH2       11.3840    2.4290   15.4430 N.pl3  85  ARG85       0.1354
@<TRIPOS>BOND
     1    54    53    2
     2    53    52    1
     3    56    58    1
     4    56    55    1
     5    51    52    1
     6    52    55    1
     7    55    57    1
     8    46    45    1
     9    46    47    2
    10    40    39    2
    11    45    48    1
    12    45    44    1
    13    48    49    1
    14    39    44   am
    15    39    38    1
    16    44    50    1
    17    92    91    1
    18    59    60    1
    19    41    38    1
    20    41    42    1
    21    41    43    1
    22    62    61    2
    23    31    32    1
    24    37    38    1
    25    37    33   am
    26    49    50    1
    27    86    85    2
    28    91    93    1
    29    91    90    2
    30    88    87    1
    31    88    89    1
    32    61    60    1
    33    61    63   am
    34    85    84    1
    35    66    65    2
    36    32    33    1
    37    32    35    1
    38    64    63    1
    39    64    65    1
    40    87    84    1
    41    89    90    1
    42    33    34    2
    43    65    67   am
    44    84    83    1
    45    67    68    1
    46    36    35    1
    47    68    69    1
    48    68    71    1
    49    70    69    2
    50    27    26    2
    51    83    75   am
    52    69    73   am
    53    72    71    1
    54    26    25    1
    55    76    75    2
    56    75    74    1
    57    73    74    1
    58    23    21    1
    59    30    28    1
    60    19    18    2
    61    74    77    1
    62    25    28    1
    63    25    24    1
    64    28    29    1
    65    18    17    1
    66    20    21    1
    67    20    17    1
    68    22    21    1
    69    77    78    1
    70    17    16    1
    71    78    79   ar
    72    78    80   ar
    73    79    81   ar
    74    16    12   am
    75    13    12    2
    76    80    82   ar
    77    12    11    1
    78    81    82   ar
    79     4     3    2
    80    11    10    1
    81    11    14    1
    82     3     2    1
    83    15    14    1
    84     9     8    1
    85     8     7    1
    86     5     2    1
    87     5     6    1
    88     7     6    1
    89     2     1    1
