@<TRIPOS>MOLECULE
tmp/2b6oA03.pdb
 97 96 0 0 0
SMALL
GASTEIGER

@<TRIPOS>ATOM
      1  N         53.4060   28.9600   43.3130 N.3     2  SER2       -0.1202
      2  CA        53.5010   29.3350   41.9020 C.3     2  SER2        0.2020
      3  C         54.8680   29.0030   41.3320 C.2     2  SER2        0.2618
      4  O         55.0040   28.7300   40.1390 O.2     2  SER2       -0.2717
      5  CB        53.2160   30.8170   41.7320 C.3     2  SER2        0.2103
      6  OG        54.1270   31.6040   42.4830 O.3     2  SER2       -0.2182
      7  N         55.8840   29.0300   42.1850 N.am    3  ALA3       -0.1979
      8  CA        57.2280   28.7080   41.7430 C.3     3  ALA3        0.1597
      9  C         57.2130   27.2700   41.2470 C.2     3  ALA3        0.2287
     10  O         58.2380   26.7370   40.8240 O.2     3  ALA3       -0.2864
     11  CB        58.2020   28.8480   42.8930 C.3     3  ALA3        0.0319
     12  N         53.9300   27.6950   37.6860 N.3     6  TRP6       -0.1227
     13  CA        54.5300   28.3800   36.5380 C.3     6  TRP6        0.1737
     14  C         55.7780   27.7080   35.9910 C.2     6  TRP6        0.2595
     15  O         56.1590   27.9440   34.8450 O.2     6  TRP6       -0.2718
     16  CB        54.8200   29.8510   36.8750 C.3     6  TRP6        0.0564
     17  CG        53.5500   30.6550   37.0260 C.ar    6  TRP6        0.0003
     18  CD1       53.0080   31.1250   38.1870 C.ar    6  TRP6        0.0946
     19  CD2       52.5910   30.9280   35.9970 C.ar    6  TRP6        0.0152
     20  NE1       51.7670   31.6550   37.9450 N.ar    6  TRP6       -0.2442
     21  CE2       51.4870   31.5440   36.6080 C.ar    6  TRP6        0.0810
     22  CE3       52.5590   30.7000   34.6150 C.ar    6  TRP6        0.0012
     23  CZ2       50.3550   31.9350   35.8880 C.ar    6  TRP6        0.0191
     24  CZ3       51.4380   31.0910   33.8980 C.ar    6  TRP6        0.0001
     25  CH2       50.3480   31.7010   34.5350 C.ar    6  TRP6        0.0015
     26  N         56.4200   26.8720   36.7980 N.am    7  ARG7       -0.1980
     27  CA        57.5830   26.1440   36.3010 C.3     7  ARG7        0.1597
     28  C         56.9720   25.1010   35.3510 C.2     7  ARG7        0.2287
     29  O         57.1930   25.1430   34.1280 O.2     7  ARG7       -0.2864
     30  CB        58.3180   25.4540   37.4480 C.3     7  ARG7        0.0334
     31  CG        59.7640   25.8510   37.5760 C.3     7  ARG7        0.0492
     32  CD        60.3000   25.4160   38.9220 C.3     7  ARG7        0.2205
     33  NE        60.3200   23.9610   39.0870 N.pl3   7  ARG7       -0.0865
     34  CZ        60.7430   23.3430   40.1910 C.cat   7  ARG7        0.5346
     35  NH1       61.1710   24.0670   41.2270 N.pl3   7  ARG7        0.1354
     36  NH2       60.7610   22.0080   40.2530 N.pl3   7  ARG7        0.1354
     37  N         54.3000   24.8260   33.9310 N.3     9  ILE9       -0.1231
     38  CA        53.6960   25.4050   32.7370 C.3     9  ILE9        0.1692
     39  C         54.7370   25.7090   31.6990 C.2     9  ILE9        0.2592
     40  O         54.4710   25.6470   30.4970 O.2     9  ILE9       -0.2718
     41  CB        52.9650   26.7260   33.0390 C.3     9  ILE9        0.0266
     42  CG1       52.0190   26.5310   34.2110 C.3     9  ILE9        0.0019
     43  CG2       52.2260   27.1950   31.8070 C.3     9  ILE9        0.0020
     44  CD1       51.1240   25.3130   34.0680 C.3     9  ILE9        0.0001
     45  N         55.9230   26.0660   32.1660 N.am   10  PHE10      -0.1976
     46  CA        56.9750   26.3770   31.2390 C.3    10  PHE10       0.1639
     47  C         57.5950   25.0580   30.8130 C.2    10  PHE10       0.2290
     48  O         57.8410   24.8150   29.6220 O.2    10  PHE10      -0.2864
     49  CB        57.9850   27.3280   31.8950 C.3    10  PHE10       0.0560
     50  CG        57.4600   28.7450   32.0590 C.ar   10  PHE10      -0.0200
     51  CD1       57.7810   29.5020   33.1970 C.ar   10  PHE10      -0.0042
     52  CD2       56.6390   29.3260   31.0750 C.ar   10  PHE10      -0.0042
     53  CE1       57.2940   30.8150   33.3580 C.ar   10  PHE10      -0.0003
     54  CE2       56.1530   30.6200   31.2240 C.ar   10  PHE10      -0.0003
     55  CZ        56.4810   31.3770   32.3780 C.ar   10  PHE10      -0.0000
     56  N         55.6100   23.9740   28.2430 N.3    13  PHE13      -0.1227
     57  CA        55.7880   24.7880   27.0390 C.3    13  PHE13       0.1736
     58  C         57.0770   24.3190   26.3710 C.2    13  PHE13       0.2595
     59  O         57.0730   23.9360   25.2000 O.2    13  PHE13      -0.2718
     60  CB        55.9060   26.2490   27.4150 C.3    13  PHE13       0.0547
     61  CG        56.3730   27.1470   26.2780 C.ar   13  PHE13      -0.0202
     62  CD1       57.7230   27.4970   26.1630 C.ar   13  PHE13      -0.0042
     63  CD2       55.4670   27.5970   25.3090 C.ar   13  PHE13      -0.0042
     64  CE1       58.1630   28.2710   25.1090 C.ar   13  PHE13      -0.0003
     65  CE2       55.8900   28.3680   24.2570 C.ar   13  PHE13      -0.0003
     66  CZ        57.2420   28.7080   24.1540 C.ar   13  PHE13      -0.0000
     67  N         58.1820   24.3210   27.1000 N.am   14  PHE14      -0.1976
     68  CA        59.4170   23.8410   26.4840 C.3    14  PHE14       0.1639
     69  C         59.3020   22.3490   26.0790 C.2    14  PHE14       0.2290
     70  O         59.5240   22.0000   24.9060 O.2    14  PHE14      -0.2864
     71  CB        60.6450   24.0750   27.4100 C.3    14  PHE14       0.0560
     72  CG        60.9440   25.5650   27.6790 C.ar   14  PHE14      -0.0200
     73  CD1       61.1440   26.4690   26.6110 C.ar   14  PHE14      -0.0042
     74  CD2       60.9870   26.0670   28.9960 C.ar   14  PHE14      -0.0042
     75  CE1       61.3700   27.8240   26.8470 C.ar   14  PHE14      -0.0003
     76  CE2       61.2180   27.4140   29.2370 C.ar   14  PHE14      -0.0003
     77  CZ        61.4080   28.2960   28.1590 C.ar   14  PHE14      -0.0000
     78  N         47.0910   25.0940   26.8940 N.3    87  VAL87      -0.1231
     79  CA        47.4810   26.3370   26.2030 C.3    87  VAL87       0.1692
     80  C         49.0240   26.4530   26.1190 C.2    87  VAL87       0.2591
     81  O         49.5730   27.1260   25.2380 O.2    87  VAL87      -0.2718
     82  CB        46.9490   27.6270   26.9040 C.3    87  VAL87       0.0266
     83  CG1       45.4590   27.6280   26.9550 C.3    87  VAL87       0.0020
     84  CG2       47.5180   27.7290   28.2790 C.3    87  VAL87       0.0020
     85  N         49.7150   25.7990   27.0450 N.am   88  ALA88      -0.1980
     86  CA        51.1550   25.8460   27.0690 C.3    88  ALA88       0.1597
     87  C         51.7130   24.8180   26.0860 C.2    88  ALA88       0.2287
     88  O         52.8100   24.9640   25.5680 O.2    88  ALA88      -0.2864
     89  CB        51.6340   25.5700   28.4690 C.3    88  ALA88       0.0319
     90  N         50.9200   26.3010   22.5600 N.3    91  LEU91      -0.1245
     91  CA        51.8890   27.3850   22.3360 C.3    91  LEU91       0.1561
     92  C         53.2680   26.7650   22.1690 C.2    91  LEU91       0.2260
     93  O         54.1420   27.3040   21.4610 O.2    91  LEU91      -0.2867
     94  CB        51.9310   28.3560   23.5440 C.3    91  LEU91       0.0270
     95  CG        50.7070   29.2160   23.8420 C.3    91  LEU91       0.0019
     96  CD1       50.9420   30.1700   25.0050 C.3    91  LEU91       0.0001
     97  CD2       50.4320   30.0040   22.5970 C.3    91  LEU91       0.0001
@<TRIPOS>BOND
     1    93    92    2
     2    92    91    1
     3    91    90    1
     4    91    94    1
     5    97    95    1
     6    94    95    1
     7    95    96    1
     8    66    65   ar
     9    66    64   ar
    10    65    63   ar
    11    70    69    2
    12    64    62   ar
    13    59    58    2
    14    81    80    2
    15    63    61   ar
    16    88    87    2
    17    69    68    1
    18    87    86    1
    19    80    79    1
    20    80    85   am
    21    62    61   ar
    22    79    78    1
    23    79    82    1
    24    61    60    1
    25    58    57    1
    26    58    67   am
    27    68    67    1
    28    68    71    1
    29    73    75   ar
    30    73    72   ar
    31    75    77   ar
    32    82    83    1
    33    82    84    1
    34    57    60    1
    35    57    56    1
    36    85    86    1
    37    86    89    1
    38    71    72    1
    39    72    74   ar
    40    77    76   ar
    41    74    76   ar
    42    48    47    2
    43    40    39    2
    44    47    46    1
    45    52    54   ar
    46    52    50   ar
    47    54    55   ar
    48    46    49    1
    49    46    45    1
    50    39    45   am
    51    39    38    1
    52    43    41    1
    53    49    50    1
    54    50    51   ar
    55    55    53   ar
    56    38    41    1
    57    38    37    1
    58    41    42    1
    59    51    53   ar
    60    24    25   ar
    61    24    22   ar
    62    44    42    1
    63    29    28    2
    64    25    23   ar
    65    22    19   ar
    66    15    14    2
    67    28    27    1
    68    23    21   ar
    69    14    13    1
    70    14    26   am
    71    19    21   ar
    72    19    17   ar
    73    27    26    1
    74    27    30    1
    75    13    16    1
    76    13    12    1
    77    21    20   ar
    78    16    17    1
    79    17    18   ar
    80    30    31    1
    81    31    32    1
    82    20    18   ar
    83    32    33    1
    84    33    34    2
    85     4     3    2
    86    34    36    1
    87    34    35    1
    88    10     9    2
    89     9     8    1
    90     3     2    1
    91     3     7   am
    92     5     2    1
    93     5     6    1
    94     8     7    1
    95     8    11    1
    96     2     1    1
