@<TRIPOS>MOLECULE
tmp/2b6oA00.pdb
 74 73 0 0 0
SMALL
GASTEIGER

@<TRIPOS>ATOM
      1  N         55.2230   26.9650   18.7060 N.3    95  ALA95      -0.1245
      2  CA        56.5470   27.5710   18.7890 C.3    95  ALA95       0.1562
      3  C         57.6080   26.5830   18.2940 C.2    95  ALA95       0.2260
      4  O         58.4520   26.9330   17.4770 O.2    95  ALA95      -0.2867
      5  CB        56.8540   28.0360   20.2320 C.3    95  ALA95       0.0290
      6  N         57.3280   26.6080   14.7090 N.3    98  ALA98      -0.1231
      7  CA        57.8270   27.8340   14.0570 C.3    98  ALA98       0.1694
      8  C         59.3320   27.6830   13.8990 C.2    98  ALA98       0.2591
      9  O         59.8610   27.8630   12.8190 O.2    98  ALA98      -0.2718
     10  CB        57.5210   29.0990   14.9070 C.3    98  ALA98       0.0304
     11  N         60.0040   27.3140   14.9820 N.am   99  VAL99      -0.1980
     12  CA        61.4390   27.1730   14.9210 C.3    99  VAL99       0.1595
     13  C         61.8480   26.1790   13.8650 C.2    99  VAL99       0.2287
     14  O         62.6610   26.4960   13.0090 O.2    99  VAL99      -0.2864
     15  CB        62.0700   26.7730   16.2680 C.3    99  VAL99       0.0276
     16  CG1       61.6930   27.7930   17.3370 C.3    99  VAL99       0.0022
     17  CG2       61.6190   25.4210   16.6450 C.3    99  VAL99       0.0022
     18  N         60.4690   25.3320   11.2880 N.3   101  TYR101     -0.1227
     19  CA        60.2630   26.0500   10.0220 C.3   101  TYR101      0.1736
     20  C         61.4670   27.0070    9.6810 C.2   101  TYR101      0.2596
     21  O         61.9150   27.1070    8.5460 O.2   101  TYR101     -0.2718
     22  CB        58.9520   26.9110   10.1320 C.3   101  TYR101      0.0548
     23  CG        58.5140   27.5550    8.8330 C.ar  101  TYR101     -0.0200
     24  CD1       57.5780   26.9050    8.0140 C.ar  101  TYR101     -0.0009
     25  CD2       59.0920   28.7540    8.3640 C.ar  101  TYR101     -0.0009
     26  CE1       57.2200   27.4020    6.7720 C.ar  101  TYR101      0.0417
     27  CE2       58.7430   29.2750    7.1060 C.ar  101  TYR101      0.0417
     28  CZ        57.7910   28.5780    6.3190 C.ar  101  TYR101      0.1957
     29  OH        57.3400   29.0390    5.0990 O.3   101  TYR101     -0.2866
     30  N         61.9300   27.7440   10.6740 N.am  102  SER102     -0.1938
     31  CA        63.0020   28.6960   10.4640 C.3   102  SER102      0.2055
     32  C         64.3500   28.0460   10.2870 C.2   102  SER102      0.2643
     33  O         65.2820   28.6950    9.8110 O.2   102  SER102     -0.2714
     34  CB        63.0940   29.6650   11.6420 C.3   102  SER102      0.2130
     35  OG        63.5330   29.0140   12.8120 O.3   102  SER102     -0.2179
     36  N         64.4760   26.7740   10.6410 N.am  103  VAL103     -0.1963
     37  CA        65.7520   26.1330   10.5260 C.3   103  VAL103      0.1727
     38  C         65.8930   25.1730    9.3780 C.2   103  VAL103      0.2617
     39  O         67.0240   24.8210    9.0100 O.2   103  VAL103     -0.2715
     40  CB        66.1070   25.3300   11.7970 C.3   103  VAL103      0.0290
     41  CG1       66.1580   26.2130   12.9810 C.3   103  VAL103      0.0023
     42  CG2       65.0830   24.2480   12.0350 C.3   103  VAL103      0.0023
     43  N         64.7660   24.7090    8.8320 N.am  104  THR104     -0.1937
     44  CA        64.8030   23.7050    7.7600 C.3   104  THR104      0.2013
     45  C         64.5180   24.2380    6.3840 C.2   104  THR104      0.2484
     46  O         63.5230   24.8960    6.1480 O.2   104  THR104     -0.2729
     47  CB        63.8530   22.5450    8.0120 C.3   104  THR104      0.1807
     48  OG1       63.3360   22.0630    6.7620 O.3   104  THR104     -0.2208
     49  CG2       62.7700   22.9690    8.8640 C.3   104  THR104      0.0379
     50  N         65.3990   23.9000    5.4360 N.am  105  PRO105     -0.2715
     51  CA        65.1690   24.4090    4.0870 C.3   105  PRO105      0.1521
     52  C         63.7740   24.1280    3.5690 C.2   105  PRO105      0.2440
     53  O         63.1680   23.0910    3.8910 O.2   105  PRO105     -0.2731
     54  CB        66.2210   23.6850    3.2630 C.3   105  PRO105      0.0310
     55  CG        67.2820   23.1590    4.3270 C.3   105  PRO105      0.0237
     56  CD        66.4250   22.8250    5.4720 C.3   105  PRO105      0.0939
     57  N         63.2410   25.0350    2.7500 N.am  106  PRO106     -0.2727
     58  CA        61.8960   24.8590    2.1610 C.3   106  PRO106      0.1402
     59  C         61.7260   23.4770    1.6060 C.2   106  PRO106      0.2269
     60  O         60.8550   22.7270    2.0370 O.2   106  PRO106     -0.2865
     61  CB        61.8820   25.8750    1.0430 C.3   106  PRO106      0.0296
     62  CG        62.6430   27.1340    1.7340 C.3   106  PRO106      0.0237
     63  CD        63.8000   26.3840    2.4990 C.3   106  PRO106      0.0939
     64  N         61.0850   21.3750    4.5450 N.3   109  ARG109     -0.1245
     65  CA        59.9320   21.7680    5.3400 C.3   109  ARG109      0.1563
     66  C         58.6670   21.8240    4.4940 C.2   109  ARG109      0.2260
     67  O         58.0820   22.9040    4.3140 O.2   109  ARG109     -0.2867
     68  CB        60.1380   23.1510    6.0020 C.3   109  ARG109      0.0307
     69  CG        60.3340   24.2910    5.0230 C.3   109  ARG109      0.0489
     70  CD        59.1600   25.2360    5.0310 C.3   109  ARG109      0.2205
     71  NE        58.6880   25.5760    3.6790 N.pl3 109  ARG109     -0.0865
     72  CZ        57.4270   25.9270    3.3730 C.cat 109  ARG109      0.5346
     73  NH1       56.4840   25.9840    4.3140 N.pl3 109  ARG109      0.1354
     74  NH2       57.1100   26.2390    2.1190 N.pl3 109  ARG109      0.1354
@<TRIPOS>BOND
     1    61    62    1
     2    61    58    1
     3    59    60    2
     4    59    58    1
     5    62    63    1
     6    74    72    1
     7    58    57    1
     8    63    57    1
     9    57    52   am
    10    54    51    1
    11    54    55    1
    12    72    71    2
    13    72    73    1
    14    52    53    2
    15    52    51    1
    16    71    70    1
    17    51    50    1
    18    67    66    2
    19    55    56    1
    20    66    65    1
    21    64    65    1
    22    69    70    1
    23    69    68    1
    24    29    28    1
    25    65    68    1
    26    50    56    1
    27    50    45   am
    28    46    45    2
    29    28    26   ar
    30    28    27   ar
    31    45    44    1
    32    48    47    1
    33    26    24   ar
    34    27    25   ar
    35    44    47    1
    36    44    43    1
    37    47    49    1
    38    24    23   ar
    39    25    23   ar
    40    21    20    2
    41    43    38   am
    42    23    22    1
    43    39    38    2
    44    38    37    1
    45    20    19    1
    46    20    30   am
    47    33    32    2
    48    19    22    1
    49    19    18    1
    50    32    31    1
    51    32    36   am
    52    31    30    1
    53    31    34    1
    54    37    36    1
    55    37    40    1
    56    34    35    1
    57    40    42    1
    58    40    41    1
    59     9     8    2
    60    14    13    2
    61    13    12    1
    62     8     7    1
    63     8    11   am
    64     7     6    1
    65     7    10    1
    66    12    11    1
    67    12    15    1
    68    15    17    1
    69    15    16    1
    70     4     3    2
    71     3     2    1
    72     1     2    1
    73     2     5    1
