@<TRIPOS>MOLECULE
tmp/2b6oA04.pdb
 104 99 0 0 0
SMALL
GASTEIGER

@<TRIPOS>ATOM
      1  N         55.6100   23.9740   28.2430 N.3    13  PHE13      -0.1241
      2  CA        55.7880   24.7880   27.0390 C.3    13  PHE13       0.1605
      3  C         57.0770   24.3190   26.3710 C.2    13  PHE13       0.2264
      4  O         57.0730   23.9360   25.2000 O.2    13  PHE13      -0.2867
      5  CB        55.9060   26.2490   27.4150 C.3    13  PHE13       0.0534
      6  CG        56.3730   27.1470   26.2780 C.ar   13  PHE13      -0.0203
      7  CD1       57.7230   27.4970   26.1630 C.ar   13  PHE13      -0.0042
      8  CD2       55.4670   27.5970   25.3090 C.ar   13  PHE13      -0.0042
      9  CE1       58.1630   28.2710   25.1090 C.ar   13  PHE13      -0.0003
     10  CE2       55.8900   28.3680   24.2570 C.ar   13  PHE13      -0.0003
     11  CZ        57.2420   28.7080   24.1540 C.ar   13  PHE13      -0.0000
     12  N         50.9200   26.3010   22.5600 N.3    91  LEU91      -0.1245
     13  CA        51.8890   27.3850   22.3360 C.3    91  LEU91       0.1561
     14  C         53.2680   26.7650   22.1690 C.2    91  LEU91       0.2260
     15  O         54.1420   27.3040   21.4610 O.2    91  LEU91      -0.2867
     16  CB        51.9310   28.3560   23.5440 C.3    91  LEU91       0.0270
     17  CG        50.7070   29.2160   23.8420 C.3    91  LEU91       0.0019
     18  CD1       50.9420   30.1700   25.0050 C.3    91  LEU91       0.0001
     19  CD2       50.4320   30.0040   22.5970 C.3    91  LEU91       0.0001
     20  N         53.2080   25.0570   18.4720 N.3    94  VAL94      -0.1231
     21  CA        53.3350   26.0880   17.4580 C.3    94  VAL94       0.1692
     22  C         54.6990   26.7270   17.5090 C.2    94  VAL94       0.2591
     23  O         55.3040   26.9770   16.4670 O.2    94  VAL94      -0.2718
     24  CB        52.1920   27.1070   17.6140 C.3    94  VAL94       0.0266
     25  CG1       52.3360   28.3180   16.6160 C.3    94  VAL94       0.0020
     26  CG2       50.8610   26.3460   17.4120 C.3    94  VAL94       0.0020
     27  N         55.2230   26.9650   18.7060 N.am   95  ALA95      -0.1980
     28  CA        56.5470   27.5710   18.7890 C.3    95  ALA95       0.1597
     29  C         57.6080   26.5830   18.2940 C.2    95  ALA95       0.2287
     30  O         58.4520   26.9330   17.4770 O.2    95  ALA95      -0.2864
     31  CB        56.8540   28.0360   20.2320 C.3    95  ALA95       0.0319
     32  N         57.3280   26.6080   14.7090 N.3    98  ALA98      -0.1245
     33  CA        57.8270   27.8340   14.0570 C.3    98  ALA98       0.1562
     34  C         59.3320   27.6830   13.8990 C.2    98  ALA98       0.2260
     35  O         59.8610   27.8630   12.8190 O.2    98  ALA98      -0.2867
     36  CB        57.5210   29.0990   14.9070 C.3    98  ALA98       0.0290
     37  N         60.4690   25.3320   11.2880 N.3   101  TYR101     -0.1241
     38  CA        60.2630   26.0500   10.0220 C.3   101  TYR101      0.1605
     39  C         61.4670   27.0070    9.6810 C.2   101  TYR101      0.2264
     40  O         61.9150   27.1070    8.5460 O.2   101  TYR101     -0.2867
     41  CB        58.9520   26.9110   10.1320 C.3   101  TYR101      0.0534
     42  CG        58.5140   27.5550    8.8330 C.ar  101  TYR101     -0.0201
     43  CD1       57.5780   26.9050    8.0140 C.ar  101  TYR101     -0.0009
     44  CD2       59.0920   28.7540    8.3640 C.ar  101  TYR101     -0.0009
     45  CE1       57.2200   27.4020    6.7720 C.ar  101  TYR101      0.0417
     46  CE2       58.7430   29.2750    7.1060 C.ar  101  TYR101      0.0417
     47  CZ        57.7910   28.5780    6.3190 C.ar  101  TYR101      0.1957
     48  OH        57.3400   29.0390    5.0990 O.3   101  TYR101     -0.2866
     49  N         61.0850   21.3750    4.5450 N.3   109  ARG109     -0.1245
     50  CA        59.9320   21.7680    5.3400 C.3   109  ARG109      0.1563
     51  C         58.6670   21.8240    4.4940 C.2   109  ARG109      0.2260
     52  O         58.0820   22.9040    4.3140 O.2   109  ARG109     -0.2867
     53  CB        60.1380   23.1510    6.0020 C.3   109  ARG109      0.0307
     54  CG        60.3340   24.2910    5.0230 C.3   109  ARG109      0.0489
     55  CD        59.1600   25.2360    5.0310 C.3   109  ARG109      0.2205
     56  NE        58.6880   25.5760    3.6790 N.pl3 109  ARG109     -0.0865
     57  CZ        57.4270   25.9270    3.3730 C.cat 109  ARG109      0.5346
     58  NH1       56.4840   25.9840    4.3140 N.pl3 109  ARG109      0.1354
     59  NH2       57.1100   26.2390    2.1190 N.pl3 109  ARG109      0.1354
     60  N         47.7710   20.1370   15.7410 N.3   185  PHE185     -0.1241
     61  CA        47.4580   21.5540   15.7790 C.3   185  PHE185      0.1605
     62  C         48.5680   22.3900   15.1360 C.2   185  PHE185      0.2264
     63  O         48.3340   22.9940   14.0800 O.2   185  PHE185     -0.2867
     64  CB        47.2580   22.0330   17.2160 C.3   185  PHE185      0.0534
     65  CG        46.7740   23.4090   17.2920 C.ar  185  PHE185     -0.0203
     66  CD1       45.4530   23.7180   16.9790 C.ar  185  PHE185     -0.0042
     67  CD2       47.6330   24.4470   17.6040 C.ar  185  PHE185     -0.0042
     68  CE1       45.0210   25.0660   16.9820 C.ar  185  PHE185     -0.0003
     69  CE2       47.1930   25.7830   17.5990 C.ar  185  PHE185     -0.0003
     70  CZ        45.8950   26.0710   17.2880 C.ar  185  PHE185     -0.0000
     71  N         48.1190   25.0730   12.0430 N.3   189  ILE189     -0.1231
     72  CA        48.1490   26.5370   12.0770 C.3   189  ILE189      0.1692
     73  C         49.1970   27.1810   11.1510 C.2   189  ILE189      0.2592
     74  O         48.8810   28.1400   10.4620 O.2   189  ILE189     -0.2718
     75  CB        48.3880   27.0730   13.4890 C.3   189  ILE189      0.0266
     76  CG1       48.2100   28.5750   13.5000 C.3   189  ILE189      0.0019
     77  CG2       49.8150   26.8610   13.8960 C.3   189  ILE189      0.0020
     78  CD1       46.8850   29.0420   12.8860 C.3   189  ILE189      0.0001
     79  N         50.4150   26.6450   11.0880 N.am  190  LEU190     -0.1966
     80  CA        51.4440   27.2670   10.2380 C.3   190  LEU190      0.1728
     81  C         51.2690   27.1130    8.7240 C.2   190  LEU190      0.2617
     82  O         51.7790   27.9090    7.9510 O.2   190  LEU190     -0.2715
     83  CB        52.8420   26.7430   10.6130 C.3   190  LEU190      0.0311
     84  CG        53.6150   27.3130   11.8190 C.3   190  LEU190      0.0022
     85  CD1       52.7810   27.2670   13.1140 C.3   190  LEU190      0.0001
     86  CD2       54.9560   26.5380   11.9510 C.3   190  LEU190      0.0001
     87  N         50.5660   26.0750    8.3100 N.am  191  THR191     -0.1937
     88  CA        50.3820   25.7600    6.9000 C.3   191  THR191      0.2028
     89  C         48.9880   26.1140    6.4720 C.2   191  THR191      0.2642
     90  O         48.6580   26.0860    5.2810 O.2   191  THR191     -0.2714
     91  CB        50.5570   24.2260    6.6850 C.3   191  THR191      0.1808
     92  OG1       51.9250   23.8480    6.9200 O.3   191  THR191     -0.2208
     93  CG2       50.1470   23.8340    5.2740 C.3   191  THR191      0.0379
     94  N         48.1740   26.4520    7.4730 N.am  192  ARG192     -0.1977
     95  CA        46.7610   26.7730    7.2910 C.3   192  ARG192      0.1597
     96  C         46.1300   25.6690    6.4510 C.2   192  ARG192      0.2287
     97  O         45.6490   25.9010    5.3400 O.2   192  ARG192     -0.2864
     98  CB        46.5720   28.1630    6.6480 C.3   192  ARG192      0.0334
     99  CG        46.8430   29.3300    7.6220 C.3   192  ARG192      0.0492
    100  CD        45.9520   29.2630    8.9050 C.3   192  ARG192      0.2205
    101  NE        44.5890   28.7980    8.6070 N.pl3 192  ARG192     -0.0865
    102  CZ        43.5080   28.9540    9.3870 C.cat 192  ARG192      0.5346
    103  NH1       43.5800   29.5790   10.5670 N.pl3 192  ARG192      0.1354
    104  NH2       42.3310   28.4750    8.9740 N.pl3 192  ARG192      0.1354
@<TRIPOS>BOND
     1    59    57    1
     2    57    56    2
     3    57    58    1
     4    56    55    1
     5    52    51    2
     6    51    50    1
     7    49    50    1
     8    54    55    1
     9    54    53    1
    10    48    47    1
    11    93    91    1
    12    90    89    2
    13    97    96    2
    14    50    53    1
    15    47    45   ar
    16    47    46   ar
    17    96    95    1
    18    89    88    1
    19    89    94   am
    20    98    95    1
    21    98    99    1
    22    91    88    1
    23    91    92    1
    24    45    43   ar
    25    88    87    1
    26    46    44   ar
    27    95    94    1
    28    99   100    1
    29    82    81    2
    30    43    42   ar
    31    87    81   am
    32    44    42   ar
    33    40    39    2
    34   101   100    1
    35   101   102    2
    36    81    80    1
    37    42    41    1
    38   104   102    1
    39   102   103    1
    40    39    38    1
    41    38    41    1
    42    38    37    1
    43    80    83    1
    44    80    79    1
    45    74    73    2
    46    83    84    1
    47    79    73   am
    48    73    72    1
    49    84    86    1
    50    84    85    1
    51    71    72    1
    52    72    75    1
    53    35    34    2
    54    78    76    1
    55    75    76    1
    56    75    77    1
    57    34    33    1
    58    33    32    1
    59    33    36    1
    60    63    62    2
    61    62    61    1
    62    60    61    1
    63    61    64    1
    64    23    22    2
    65    25    24    1
    66    66    68   ar
    67    66    65   ar
    68    68    70   ar
    69    64    65    1
    70    70    69   ar
    71    65    67   ar
    72    26    24    1
    73    21    22    1
    74    21    24    1
    75    21    20    1
    76    30    29    2
    77    22    27   am
    78    69    67   ar
    79    29    28    1
    80    27    28    1
    81    28    31    1
    82    15    14    2
    83    14    13    1
    84    13    12    1
    85    13    16    1
    86    19    17    1
    87    16    17    1
    88    17    18    1
    89    11    10   ar
    90    11     9   ar
    91    10     8   ar
    92     9     7   ar
    93     4     3    2
    94     8     6   ar
    95     7     6   ar
    96     6     5    1
    97     3     2    1
    98     2     5    1
    99     2     1    1
