@<TRIPOS>MOLECULE
tmp/2b6oA01.pdb
 105 101 0 0 0
SMALL
GASTEIGER

@<TRIPOS>ATOM
      1  N         44.1360   15.9350   29.2260 N.3    69  PHE69      -0.1241
      2  CA        42.7140   15.7130   29.4380 C.3    69  PHE69       0.1605
      3  C         42.5240   14.4160   30.2050 C.2    69  PHE69       0.2264
      4  O         41.6710   14.3380   31.0900 O.2    69  PHE69      -0.2867
      5  CB        41.9240   15.6350   28.1210 C.3    69  PHE69       0.0534
      6  CG        41.8200   16.9580   27.3920 C.ar   69  PHE69      -0.0203
      7  CD1       41.9560   18.1900   28.0920 C.ar   69  PHE69      -0.0042
      8  CD2       41.6250   16.9950   26.0040 C.ar   69  PHE69      -0.0042
      9  CE1       41.9030   19.3810   27.4320 C.ar   69  PHE69      -0.0003
     10  CE2       41.5760   18.2130   25.3370 C.ar   69  PHE69      -0.0003
     11  CZ        41.7150   19.3970   26.0510 C.ar   69  PHE69      -0.0000
     12  N         43.6890   19.8490   38.3460 N.3    78  SER78      -0.1202
     13  CA        42.7140   20.9050   38.5590 C.3    78  SER78       0.2020
     14  C         42.3550   21.3630   37.1660 C.2    78  SER78       0.2619
     15  O         43.1880   21.3100   36.2750 O.2    78  SER78      -0.2717
     16  CB        43.3330   22.0610   39.3310 C.3    78  SER78       0.2103
     17  OG        44.3440   22.7100   38.5810 O.3    78  SER78      -0.2182
     18  N         41.1300   21.8080   36.9570 N.am   79  LEU79      -0.1965
     19  CA        40.7370   22.2130   35.6220 C.3    79  LEU79       0.1728
     20  C         41.5870   23.3980   35.2240 C.2    79  LEU79       0.2616
     21  O         41.7690   23.6660   34.0420 O.2    79  LEU79      -0.2715
     22  CB        39.2300   22.5400   35.5840 C.3    79  LEU79       0.0311
     23  CG        38.4450   22.7350   34.2820 C.3    79  LEU79       0.0022
     24  CD1       38.5860   24.1280   33.7750 C.3    79  LEU79       0.0001
     25  CD2       38.8960   21.7830   33.2430 C.3    79  LEU79       0.0001
     26  N         42.1160   24.1090   36.2100 N.am   80  LEU80      -0.1977
     27  CA        42.9730   25.2530   35.9190 C.3    80  LEU80       0.1596
     28  C         44.2950   24.7510   35.3250 C.2    80  LEU80       0.2287
     29  O         44.6410   25.0170   34.1700 O.2    80  LEU80      -0.2864
     30  CB        43.2880   26.0360   37.1890 C.3    80  LEU80       0.0297
     31  CG        44.4440   27.0010   36.9470 C.3    80  LEU80       0.0022
     32  CD1       43.9620   28.1520   36.0540 C.3    80  LEU80       0.0001
     33  CD2       44.9530   27.5160   38.2680 C.3    80  LEU80       0.0001
     34  N         44.0800   23.4340   32.1030 N.3    83  ILE83      -0.1245
     35  CA        43.8610   24.2780   30.9390 C.3    83  ILE83       0.1561
     36  C         45.1340   25.0530   30.6800 C.2    83  ILE83       0.2260
     37  O         45.4480   25.3910   29.5410 O.2    83  ILE83      -0.2867
     38  CB        42.6540   25.2470   31.1160 C.3    83  ILE83       0.0252
     39  CG1       42.6110   26.2480   29.9640 C.3    83  ILE83       0.0019
     40  CG2       42.7720   26.0410   32.3890 C.3    83  ILE83       0.0019
     41  CD1       42.5110   25.6060   28.6360 C.3    83  ILE83       0.0001
     42  N         47.2730   22.7270   28.4410 N.3    86  VAL86      -0.1231
     43  CA        46.8690   22.6580   27.0460 C.3    86  VAL86       0.1692
     44  C         47.2460   23.9210   26.2800 C.2    86  VAL86       0.2591
     45  O         47.6830   23.8390   25.1350 O.2    86  VAL86      -0.2718
     46  CB        45.3280   22.3830   26.9280 C.3    86  VAL86       0.0266
     47  CG1       44.8760   22.4990   25.4980 C.3    86  VAL86       0.0020
     48  CG2       45.0050   20.9810   27.4390 C.3    86  VAL86       0.0020
     49  N         47.0910   25.0940   26.8940 N.am   87  VAL87      -0.1980
     50  CA        47.4810   26.3370   26.2030 C.3    87  VAL87       0.1595
     51  C         49.0240   26.4530   26.1190 C.2    87  VAL87       0.2287
     52  O         49.5730   27.1260   25.2380 O.2    87  VAL87      -0.2864
     53  CB        46.9490   27.6270   26.9040 C.3    87  VAL87       0.0276
     54  CG1       45.4590   27.6280   26.9550 C.3    87  VAL87       0.0022
     55  CG2       47.5180   27.7290   28.2790 C.3    87  VAL87       0.0022
     56  N         49.8940   23.8180   23.3070 N.3    90  LEU90      -0.1245
     57  CA        49.5410   24.3760   22.0010 C.3    90  LEU90       0.1561
     58  C         50.5310   25.4740   21.5910 C.2    90  LEU90       0.2260
     59  O         50.9390   25.5530   20.4290 O.2    90  LEU90      -0.2867
     60  CB        48.1110   24.9200   22.0390 C.3    90  LEU90       0.0270
     61  CG        47.0920   23.7850   22.2540 C.3    90  LEU90       0.0019
     62  CD1       45.7080   24.3820   22.2700 C.3    90  LEU90       0.0001
     63  CD2       47.2480   22.6810   21.1800 C.3    90  LEU90       0.0001
     64  N         47.7710   20.1370   15.7410 N.3   185  PHE185     -0.1241
     65  CA        47.4580   21.5540   15.7790 C.3   185  PHE185      0.1605
     66  C         48.5680   22.3900   15.1360 C.2   185  PHE185      0.2264
     67  O         48.3340   22.9940   14.0800 O.2   185  PHE185     -0.2867
     68  CB        47.2580   22.0330   17.2160 C.3   185  PHE185      0.0534
     69  CG        46.7740   23.4090   17.2920 C.ar  185  PHE185     -0.0203
     70  CD1       45.4530   23.7180   16.9790 C.ar  185  PHE185     -0.0042
     71  CD2       47.6330   24.4470   17.6040 C.ar  185  PHE185     -0.0042
     72  CE1       45.0210   25.0660   16.9820 C.ar  185  PHE185     -0.0003
     73  CE2       47.1930   25.7830   17.5990 C.ar  185  PHE185     -0.0003
     74  CZ        45.8950   26.0710   17.2880 C.ar  185  PHE185     -0.0000
     75  N         41.3760   15.6980   17.5070 N.3   201  TRP201     -0.1241
     76  CA        41.1560   16.1890   18.8590 C.3   201  TRP201      0.1605
     77  C         40.2070   15.2090   19.4230 C.2   201  TRP201      0.2264
     78  O         40.4140   14.6850   20.5100 O.2   201  TRP201     -0.2867
     79  CB        40.5390   17.6200   18.8990 C.3   201  TRP201      0.0550
     80  CG        41.5040   18.7160   18.4370 C.ar  201  TRP201      0.0003
     81  CD1       41.8360   19.0420   17.1340 C.ar  201  TRP201      0.0946
     82  CD2       42.2670   19.6100   19.2680 C.ar  201  TRP201      0.0152
     83  NE1       42.7430   20.0750   17.1190 N.ar  201  TRP201     -0.2442
     84  CE2       43.0280   20.4420   18.4060 C.ar  201  TRP201      0.0810
     85  CE3       42.3770   19.7870   20.6470 C.ar  201  TRP201      0.0012
     86  CZ2       43.8890   21.4300   18.8830 C.ar  201  TRP201      0.0191
     87  CZ3       43.2330   20.7720   21.1240 C.ar  201  TRP201      0.0001
     88  CH2       43.9830   21.5830   20.2420 C.ar  201  TRP201      0.0015
     89  N         39.1590   19.2230   42.1280 N.3   233  LEU233     -0.1231
     90  CA        38.6870   20.1970   41.1460 C.3   233  LEU233      0.1693
     91  C         38.4700   21.5430   41.8310 C.2   233  LEU233      0.2591
     92  O         38.8360   22.5900   41.2980 O.2   233  LEU233     -0.2718
     93  CB        37.3680   19.7340   40.5120 C.3   233  LEU233      0.0284
     94  CG        37.3400   18.4330   39.7020 C.3   233  LEU233      0.0019
     95  CD1       35.9310   18.2090   39.1570 C.3   233  LEU233      0.0001
     96  CD2       38.3440   18.5040   38.5620 C.3   233  LEU233      0.0001
     97  N         37.8670   21.5010   43.0170 N.am  234  LYS234     -0.1980
     98  CA        37.5980   22.7040   43.7950 C.3   234  LYS234      0.1596
     99  C         38.8970   23.2520   44.3760 C.2   234  LYS234      0.2287
    100  O         38.8880   24.1870   45.1780 O.2   234  LYS234     -0.2864
    101  CB        36.6250   22.3900   44.9340 C.3   234  LYS234      0.0298
    102  CG        35.2630   21.8900   44.4840 C.3   234  LYS234      0.0038
    103  CD        34.3810   21.5410   45.6780 C.3   234  LYS234      0.0206
    104  CE        34.1350   22.7490   46.5730 C.3   234  LYS234      0.1093
    105  NZ        33.3040   22.3970   47.7590 N.3   234  LYS234     -0.1314
@<TRIPOS>BOND
     1    67    66    2
     2    66    65    1
     3    64    65    1
     4    65    68    1
     5    70    72   ar
     6    70    69   ar
     7    72    74   ar
     8    83    81   ar
     9    83    84   ar
    10    81    80   ar
    11    68    69    1
    12    74    73   ar
    13    69    71   ar
    14    75    76    1
    15    73    71   ar
    16    84    86   ar
    17    84    82   ar
    18    80    79    1
    19    80    82   ar
    20    76    79    1
    21    76    77    1
    22    86    88   ar
    23    82    85   ar
    24    77    78    2
    25    88    87   ar
    26    59    58    2
    27    85    87   ar
    28    63    61    1
    29    58    57    1
    30    57    60    1
    31    57    56    1
    32    60    61    1
    33    61    62    1
    34    45    44    2
    35    52    51    2
    36    10     8   ar
    37    10    11   ar
    38    47    46    1
    39     8     6   ar
    40    11     9   ar
    41    51    50    1
    42    50    49    1
    43    50    53    1
    44    44    49   am
    45    44    43    1
    46    53    54    1
    47    53    55    1
    48    46    43    1
    49    46    48    1
    50    43    42    1
    51     6     7   ar
    52     6     5    1
    53     9     7   ar
    54     5     2    1
    55    41    39    1
    56     1     2    1
    57     2     3    1
    58    37    36    2
    59    39    38    1
    60     3     4    2
    61    36    35    1
    62    35    38    1
    63    35    34    1
    64    38    40    1
    65    25    23    1
    66    24    23    1
    67    21    20    2
    68    29    28    2
    69    23    22    1
    70    20    19    1
    71    20    26   am
    72    28    27    1
    73    22    19    1
    74    19    18    1
    75    27    26    1
    76    27    30    1
    77    32    31    1
    78    15    14    2
    79    31    30    1
    80    31    33    1
    81    18    14   am
    82    14    13    1
    83    12    13    1
    84    13    16    1
    85    96    94    1
    86    17    16    1
    87    95    94    1
    88    94    93    1
    89    93    90    1
    90    90    91    1
    91    90    89    1
    92    92    91    2
    93    91    97   am
    94    97    98    1
    95    98    99    1
    96    98   101    1
    97    99   100    2
    98   102   101    1
    99   102   103    1
   100   103   104    1
   101   104   105    1
