@<TRIPOS>MOLECULE
tmp/2b76D00.pdb
 129 123 0 0 0
SMALL
GASTEIGER

@<TRIPOS>ATOM
      1  N         36.7180   18.4810  -61.2960 N.3    24  TRP24      -0.1241
      2  CA        37.3530   18.6290  -62.5960 C.3    24  TRP24       0.1605
      3  C         36.2770   19.0970  -63.5810 C.2    24  TRP24       0.2264
      4  O         36.3840   20.1610  -64.1620 O.2    24  TRP24      -0.2867
      5  CB        38.0030   17.2850  -63.0200 C.3    24  TRP24       0.0550
      6  CG        38.7330   17.2710  -64.3810 C.ar   24  TRP24       0.0003
      7  CD1       38.1600   17.2300  -65.6200 C.ar   24  TRP24       0.0946
      8  CD2       40.1430   17.2470  -64.5940 C.ar   24  TRP24       0.0152
      9  NE1       39.1160   17.1830  -66.5750 N.ar   24  TRP24      -0.2442
     10  CE2       40.3500   17.1900  -65.9820 C.ar   24  TRP24       0.0810
     11  CE3       41.2560   17.2620  -63.7410 C.ar   24  TRP24       0.0012
     12  CZ2       41.6400   17.1480  -66.5540 C.ar   24  TRP24       0.0191
     13  CZ3       42.5370   17.2200  -64.3000 C.ar   24  TRP24       0.0001
     14  CH2       42.7160   17.1630  -65.6940 C.ar   24  TRP24       0.0015
     15  N         36.5910   23.5360  -72.4840 N.3    32  MET32      -0.1245
     16  CA        36.7800   22.5020  -73.5230 C.3    32  MET32       0.1570
     17  C         35.5370   22.2490  -74.3590 C.2    32  MET32       0.2261
     18  O         35.6500   21.8620  -75.5280 O.2    32  MET32      -0.2867
     19  CB        37.2580   21.2320  -72.8830 C.3    32  MET32       0.0387
     20  CG        38.5800   21.4450  -72.2150 C.3    32  MET32       0.0595
     21  SD        39.9000   20.4600  -72.8480 S.3    32  MET32      -0.1393
     22  CE        39.0560   19.4630  -73.9450 C.3    32  MET32       0.0692
     23  N         35.9290   24.8570  -76.8990 N.3    35  LEU35      -0.1231
     24  CA        36.8160   24.4760  -77.9900 C.3    35  LEU35       0.1693
     25  C         36.2260   23.3690  -78.8520 C.2    35  LEU35       0.2591
     26  O         35.6940   23.6090  -79.9290 O.2    35  LEU35      -0.2718
     27  CB        38.1620   24.0410  -77.4620 C.3    35  LEU35       0.0284
     28  CG        38.8960   25.0530  -76.5930 C.3    35  LEU35       0.0019
     29  CD1       40.0500   24.3680  -75.8800 C.3    35  LEU35       0.0001
     30  CD2       39.4020   26.2100  -77.4310 C.3    35  LEU35       0.0001
     31  N         36.2990   22.1420  -78.3740 N.am   36  VAL36      -0.1980
     32  CA        35.7320   21.0140  -79.1240 C.3    36  VAL36       0.1595
     33  C         34.2680   21.1310  -79.5630 C.2    36  VAL36       0.2287
     34  O         33.9240   20.7470  -80.6640 O.2    36  VAL36      -0.2864
     35  CB        35.8840   19.7180  -78.3370 C.3    36  VAL36       0.0276
     36  CG1       35.9120   18.5550  -79.2920 C.3    36  VAL36       0.0022
     37  CG2       37.1490   19.7860  -77.5260 C.3    36  VAL36       0.0022
     38  N         35.9700   24.6180  -82.3520 N.3    40  LEU40      -0.1245
     39  CA        36.5230   23.7270  -83.3830 C.3    40  LEU40       0.1561
     40  C         35.7140   23.6760  -84.6640 C.2    40  LEU40       0.2260
     41  O         36.1810   24.1600  -85.6630 O.2    40  LEU40      -0.2867
     42  CB        36.7420   22.2960  -82.8490 C.3    40  LEU40       0.0270
     43  CG        36.9920   21.2380  -83.9170 C.3    40  LEU40       0.0019
     44  CD1       38.4300   20.7720  -83.8940 C.3    40  LEU40       0.0001
     45  CD2       36.0790   20.0740  -83.6140 C.3    40  LEU40       0.0001
     46  N         44.1860   23.8980  -84.7310 N.3    50  LEU50      -0.1245
     47  CA        43.1490   22.9140  -84.3850 C.3    50  LEU50       0.1561
     48  C         42.7480   22.1570  -85.6170 C.2    50  LEU50       0.2260
     49  O         41.6430   22.3240  -86.1210 O.2    50  LEU50      -0.2867
     50  CB        41.8800   23.5550  -83.8480 C.3    50  LEU50       0.0270
     51  CG        41.7770   24.0430  -82.4080 C.3    50  LEU50       0.0019
     52  CD1       40.2950   24.0460  -82.1440 C.3    50  LEU50       0.0001
     53  CD2       42.4650   23.1420  -81.3720 C.3    50  LEU50       0.0001
     54  N         47.7330   19.1360  -85.9450 N.3    54  ARG54      -0.1231
     55  CA        48.0470   19.6400  -84.5830 C.3    54  ARG54       0.1694
     56  C         47.4370   18.9020  -83.4020 C.2    54  ARG54       0.2591
     57  O         48.1450   18.5740  -82.4530 O.2    54  ARG54      -0.2718
     58  CB        47.7370   21.1530  -84.4550 C.3    54  ARG54       0.0321
     59  CG        48.2010   21.7570  -83.0990 C.3    54  ARG54       0.0489
     60  CD        48.5540   23.2550  -83.1720 C.3    54  ARG54       0.2205
     61  NE        49.0090   23.8660  -81.9140 N.pl3  54  ARG54      -0.0865
     62  CZ        48.2170   24.1800  -80.8890 C.cat  54  ARG54       0.5346
     63  NH1       46.9180   23.9410  -80.9520 N.pl3  54  ARG54       0.1354
     64  NH2       48.7180   24.7510  -79.7950 N.pl3  54  ARG54       0.1354
     65  N         46.1320   18.6560  -83.4570 N.am   55  VAL55      -0.1980
     66  CA        45.4490   17.9260  -82.3890 C.3    55  VAL55       0.1595
     67  C         46.1570   16.6000  -82.0610 C.2    55  VAL55       0.2287
     68  O         46.4680   16.3160  -80.9000 O.2    55  VAL55      -0.2864
     69  CB        44.0120   17.6320  -82.7820 C.3    55  VAL55       0.0276
     70  CG1       43.2460   17.0660  -81.6170 C.3    55  VAL55       0.0022
     71  CG2       43.3490   18.9190  -83.2440 C.3    55  VAL55       0.0022
     72  N         49.3980   16.7270  -79.8610 N.3    58  PHE58      -0.1227
     73  CA        49.0070   16.8400  -78.4430 C.3    58  PHE58       0.1736
     74  C         48.4730   15.5360  -77.9230 C.2    58  PHE58       0.2595
     75  O         48.9760   14.9960  -76.9410 O.2    58  PHE58      -0.2718
     76  CB        47.8900   17.8620  -78.3180 C.3    58  PHE58       0.0547
     77  CG        47.2370   17.9010  -76.9560 C.ar   58  PHE58      -0.0202
     78  CD1       47.9100   18.4620  -75.8460 C.ar   58  PHE58      -0.0042
     79  CD2       45.9450   17.4140  -76.7840 C.ar   58  PHE58      -0.0042
     80  CE1       47.3040   18.5460  -74.5690 C.ar   58  PHE58      -0.0003
     81  CE2       45.3090   17.4770  -75.5280 C.ar   58  PHE58      -0.0003
     82  CZ        45.9900   18.0500  -74.4070 C.ar   58  PHE58      -0.0000
     83  N         47.4160   15.0610  -78.5760 N.am   59  ALA59      -0.1980
     84  CA        46.8240   13.7860  -78.2220 C.3    59  ALA59       0.1597
     85  C         47.9860   12.8020  -78.0650 C.2    59  ALA59       0.2287
     86  O         48.2520   12.3020  -76.9880 O.2    59  ALA59      -0.2864
     87  CB        45.8730   13.3210  -79.3220 C.3    59  ALA59       0.0319
     88  N         51.5440   14.2680  -71.8040 N.3    63  ILE63      -0.1245
     89  CA        50.7210   15.1480  -70.9980 C.3    63  ILE63       0.1561
     90  C         49.4400   15.5340  -71.6890 C.2    63  ILE63       0.2260
     91  O         48.6960   16.3540  -71.1960 O.2    63  ILE63      -0.2867
     92  CB        51.4770   16.4320  -70.6030 C.3    63  ILE63       0.0252
     93  CG1       51.7840   17.3020  -71.8280 C.3    63  ILE63       0.0019
     94  CG2       52.7310   16.0700  -69.8700 C.3    63  ILE63       0.0019
     95  CD1       51.1280   18.6830  -71.7800 C.3    63  ILE63       0.0001
     96  N         47.6610   11.8150  -70.7500 N.3    66  VAL66      -0.1231
     97  CA        47.1780   11.8070  -69.3810 C.3    66  VAL66       0.1692
     98  C         45.9330   12.7010  -69.3510 C.2    66  VAL66       0.2592
     99  O         44.9020   12.3600  -68.7680 O.2    66  VAL66      -0.2718
    100  CB        48.2140   12.4120  -68.4370 C.3    66  VAL66       0.0266
    101  CG1       47.5350   13.1230  -67.3050 C.3    66  VAL66       0.0020
    102  CG2       49.1000   11.3210  -67.8840 C.3    66  VAL66       0.0020
    103  N         46.0500   13.8470  -70.0050 N.am   67  PHE67      -0.1962
    104  CA        44.9690   14.7990  -70.0910 C.3    67  PHE67       0.1771
    105  C         43.6440   14.3090  -70.6150 C.2    67  PHE67       0.2619
    106  O         42.6460   14.5740  -70.0090 O.2    67  PHE67      -0.2715
    107  CB        45.3490   16.0030  -70.9460 C.3    67  PHE67       0.0574
    108  CG        44.4080   17.1640  -70.7720 C.ar   67  PHE67      -0.0200
    109  CD1       44.8350   18.3330  -70.1640 C.ar   67  PHE67      -0.0042
    110  CD2       43.0800   17.0720  -71.1740 C.ar   67  PHE67      -0.0042
    111  CE1       43.9540   19.3830  -69.9650 C.ar   67  PHE67      -0.0003
    112  CE2       42.1940   18.1290  -70.9710 C.ar   67  PHE67      -0.0003
    113  CZ        42.6270   19.2840  -70.3690 C.ar   67  PHE67      -0.0000
    114  N         43.6140   13.6370  -71.7510 N.am   68  LEU68      -0.1977
    115  CA        42.3360   13.2300  -72.2850 C.3    68  LEU68       0.1596
    116  C         41.7420   12.0810  -71.5050 C.2    68  LEU68       0.2287
    117  O         40.5320   11.8220  -71.5760 O.2    68  LEU68      -0.2864
    118  CB        42.4170   12.8830  -73.7770 C.3    68  LEU68       0.0297
    119  CG        42.9450   13.9410  -74.7420 C.3    68  LEU68       0.0022
    120  CD1       42.5950   13.5710  -76.1630 C.3    68  LEU68       0.0001
    121  CD2       42.3300   15.2730  -74.4040 C.3    68  LEU68       0.0001
    122  N         38.0190   12.6100  -69.9050 N.3    72  ILE72      -0.1245
    123  CA        36.9690   11.6860  -70.3330 C.3    72  ILE72       0.1561
    124  C         36.4090   11.0130  -69.0880 C.2    72  ILE72       0.2260
    125  O         35.2420   11.1730  -68.7580 O.2    72  ILE72      -0.2867
    126  CB        37.5270   10.6380  -71.3210 C.3    72  ILE72       0.0252
    127  CG1       37.8650   11.3120  -72.6370 C.3    72  ILE72       0.0019
    128  CG2       36.5110    9.5280  -71.5830 C.3    72  ILE72       0.0019
    129  CD1       38.6210   10.4320  -73.5800 C.3    72  ILE72       0.0001
@<TRIPOS>BOND
     1    49    48    2
     2    54    55    1
     3    41    40    2
     4    48    47    1
     5    46    47    1
     6    40    39    1
     7    55    58    1
     8    55    56    1
     9    58    59    1
    10    47    50    1
    11    43    44    1
    12    43    45    1
    13    43    42    1
    14    50    51    1
    15    65    56   am
    16    65    66    1
    17    56    57    2
    18    39    42    1
    19    39    38    1
    20    71    69    1
    21    60    59    1
    22    60    61    1
    23    69    66    1
    24    69    70    1
    25    51    52    1
    26    51    53    1
    27    66    67    1
    28    67    68    2
    29    61    62    2
    30    63    62    1
    31    62    64    1
    32    34    33    2
    33    26    25    2
    34    72    73    1
    35    33    32    1
    36    87    84    1
    37    36    35    1
    38    32    31    1
    39    32    35    1
    40    25    31   am
    41    25    24    1
    42    83    84    1
    43    83    74   am
    44    73    76    1
    45    73    74    1
    46    35    37    1
    47    76    77    1
    48    84    85    1
    49    85    86    2
    50    24    27    1
    51    24    23    1
    52    74    75    2
    53    27    28    1
    54    30    28    1
    55    77    79   ar
    56    77    78   ar
    57    79    81   ar
    58    28    29    1
    59   120   119    1
    60    78    80   ar
    61    81    82   ar
    62    18    17    2
    63   119   121    1
    64   119   118    1
    65    80    82   ar
    66    17    16    1
    67    22    21    1
    68   118   115    1
    69   129   127    1
    70    16    19    1
    71    16    15    1
    72    19    20    1
    73    21    20    1
    74   127   126    1
    75   115   114    1
    76   115   116    1
    77    93    95    1
    78    93    92    1
    79    88    89    1
    80   114   105   am
    81    90    91    2
    82    90    89    1
    83   128   126    1
    84   117   116    2
    85   126   123    1
    86   110   112   ar
    87   110   108   ar
    88    89    92    1
    89   112   113   ar
    90   107   108    1
    91   107   104    1
    92   108   109   ar
    93    96    97    1
    94   105   104    1
    95   105   106    2
    96    92    94    1
    97   113   111   ar
    98   123   122    1
    99   123   124    1
   100   109   111   ar
   101   104   103    1
   102   103    98   am
   103    97    98    1
   104    97   100    1
   105    98    99    2
   106   124   125    2
   107   100   102    1
   108   100   101    1
   109     9    10   ar
   110     9     7   ar
   111    12    10   ar
   112    12    14   ar
   113    10     8   ar
   114    14    13   ar
   115     7     6   ar
   116     8     6   ar
   117     8    11   ar
   118     6     5    1
   119    13    11   ar
   120     4     3    2
   121     3     2    1
   122     5     2    1
   123     2     1    1
