@<TRIPOS>MOLECULE
tmp/2b76E00.pdb
 122 118 0 0 0
SMALL
GASTEIGER

@<TRIPOS>ATOM
      1  N         13.2680  -49.4130  -31.6820 N.3    52  GLY52      -0.1225
      2  CA        12.2840  -48.3710  -31.8870 C.3    52  GLY52       0.1811
      3  C         11.2660  -48.1940  -30.7770 C.2    52  GLY52       0.2280
      4  O         11.2630  -48.9270  -29.7870 O.2    52  GLY52      -0.2866
      5  N          8.3350  -56.2070  -33.6840 N.3   117  PHE117     -0.1241
      6  CA         9.4300  -56.3830  -32.7390 C.3   117  PHE117      0.1605
      7  C          9.2580  -57.5720  -31.7960 C.2   117  PHE117      0.2264
      8  O          9.8260  -58.6410  -32.0300 O.2   117  PHE117     -0.2867
      9  CB         9.6180  -55.1050  -31.9170 C.3   117  PHE117      0.0534
     10  CG        11.0560  -54.7370  -31.6930 C.ar  117  PHE117     -0.0203
     11  CD1       11.8070  -54.1620  -32.7140 C.ar  117  PHE117     -0.0042
     12  CD2       11.6690  -54.9860  -30.4700 C.ar  117  PHE117     -0.0042
     13  CE1       13.1490  -53.8410  -32.5220 C.ar  117  PHE117     -0.0003
     14  CE2       13.0100  -54.6680  -30.2680 C.ar  117  PHE117     -0.0003
     15  CZ        13.7510  -54.0950  -31.2950 C.ar  117  PHE117     -0.0000
     16  N         13.6780  -58.3730  -17.2880 N.3   231  GLN231     -0.1231
     17  CA        13.8960  -57.8970  -18.6390 C.3   231  GLN231      0.1698
     18  C         15.3940  -57.8960  -18.9340 C.2   231  GLN231      0.2592
     19  O         15.9990  -56.8400  -19.1270 O.2   231  GLN231     -0.2718
     20  CB        13.3360  -56.4850  -18.8130 C.3   231  GLN231      0.0381
     21  CG        13.1080  -56.1070  -20.2570 C.3   231  GLN231      0.0905
     22  CD        11.8020  -56.6430  -20.7860 C.2   231  GLN231      0.2608
     23  OE1       10.7420  -56.0650  -20.5550 O.2   231  GLN231     -0.2717
     24  NE2       11.8670  -57.7590  -21.4910 N.am  231  GLN231     -0.0878
     25  N         15.9880  -59.0850  -18.9480 N.am  232  TYR232     -0.1962
     26  CA        17.4100  -59.2330  -19.2440 C.3   232  TYR232      0.1771
     27  C         17.5480  -59.2310  -20.7680 C.2   232  TYR232      0.2620
     28  O         16.5640  -59.4610  -21.4750 O.2   232  TYR232     -0.2715
     29  CB        17.9240  -60.5500  -18.6680 C.3   232  TYR232      0.0574
     30  CG        18.9640  -60.4000  -17.5750 C.ar  232  TYR232     -0.0198
     31  CD1       18.7030  -59.6600  -16.4230 C.ar  232  TYR232     -0.0009
     32  CD2       20.2030  -61.0330  -17.6830 C.ar  232  TYR232     -0.0009
     33  CE1       19.6520  -59.5580  -15.4030 C.ar  232  TYR232      0.0417
     34  CE2       21.1570  -60.9390  -16.6710 C.ar  232  TYR232      0.0417
     35  CZ        20.8790  -60.2030  -15.5330 C.ar  232  TYR232      0.1957
     36  OH        21.8240  -60.1260  -14.5270 O.3   232  TYR232     -0.2866
     37  N         18.7490  -58.9780  -21.2840 N.am  233  HIS233     -0.1960
     38  CA        18.9230  -58.9470  -22.7350 C.3   233  HIS233      0.1772
     39  C         19.3680  -60.2770  -23.3570 C.2   233  HIS233      0.2462
     40  O         20.3880  -60.8320  -22.9750 O.2   233  HIS233     -0.2730
     41  CB        19.9150  -57.8560  -23.1220 C.3   233  HIS233      0.0785
     42  CG        19.6500  -57.2700  -24.4720 C.ar  233  HIS233      0.0821
     43  ND1       19.4290  -58.0470  -25.5900 N.ar  233  HIS233     -0.2267
     44  CD2       19.5420  -55.9840  -24.8820 C.ar  233  HIS233      0.1154
     45  CE1       19.1950  -57.2650  -26.6290 C.ar  233  HIS233      0.1986
     46  NE2       19.2580  -56.0080  -26.2250 N.ar  233  HIS233     -0.2212
     47  N         18.6060  -60.7990  -24.3390 N.am  234  PRO234     -0.2727
     48  CA        18.9890  -62.0710  -24.9680 C.3   234  PRO234      0.1402
     49  C         20.3240  -61.9370  -25.6980 C.2   234  PRO234      0.2269
     50  O         21.3400  -62.5350  -25.2980 O.2   234  PRO234     -0.2865
     51  CB        17.8240  -62.3520  -25.9240 C.3   234  PRO234      0.0296
     52  CG        17.3880  -60.9770  -26.3210 C.3   234  PRO234      0.0237
     53  CD        17.4190  -60.2230  -24.9990 C.3   234  PRO234      0.0939
     54  N         23.8650  -53.8420  -26.5210 N.3   243  LEU243     -0.1245
     55  CA        22.7470  -54.4330  -27.2710 C.3   243  LEU243      0.1561
     56  C         23.0010  -54.6280  -28.7580 C.2   243  LEU243      0.2260
     57  O         23.5760  -53.7660  -29.4230 O.2   243  LEU243     -0.2867
     58  CB        21.4580  -53.6160  -27.1120 C.3   243  LEU243      0.0270
     59  CG        20.3400  -53.9430  -28.1270 C.3   243  LEU243      0.0019
     60  CD1       19.0110  -53.3970  -27.6560 C.3   243  LEU243      0.0001
     61  CD2       20.6730  -53.3410  -29.4730 C.3   243  LEU243      0.0001
     62  N         17.4320  -56.5280  -31.5690 N.3   246  GLU246     -0.1245
     63  CA        16.6270  -57.7080  -31.8210 C.3   246  GLU246      0.1567
     64  C         15.9990  -57.4810  -33.1990 C.2   246  GLU246      0.2260
     65  O         15.4060  -58.3890  -33.8000 O.2   246  GLU246     -0.2867
     66  CB        15.5670  -57.8240  -30.7200 C.3   246  GLU246      0.0388
     67  CG        16.1440  -57.5210  -29.3290 C.3   246  GLU246      0.1160
     68  CD        15.1290  -57.6300  -28.2040 C.2   246  GLU246      0.3649
     69  OE1       14.0480  -57.0120  -28.3030 O.co2 246  GLU246     -0.2457
     70  OE2       15.4200  -58.3270  -27.2090 O.co2 246  GLU246     -0.2457
     71  N          9.3620  -63.4710  -26.6690 N.3   288  ARG288     -0.1245
     72  CA        10.4150  -62.6790  -26.0250 C.3   288  ARG288      0.1563
     73  C         11.2300  -63.3470  -24.9050 C.2   288  ARG288      0.2260
     74  O         12.4390  -63.1450  -24.8090 O.2   288  ARG288     -0.2867
     75  CB         9.7920  -61.3730  -25.4940 C.3   288  ARG288      0.0307
     76  CG        10.7690  -60.2200  -25.2630 C.3   288  ARG288      0.0489
     77  CD        11.0110  -59.9220  -23.7820 C.3   288  ARG288      0.2205
     78  NE        11.6910  -61.0120  -23.0810 N.pl3 288  ARG288     -0.0865
     79  CZ        12.7670  -60.8540  -22.3120 C.cat 288  ARG288      0.5346
     80  NH1       13.2970  -59.6460  -22.1430 N.pl3 288  ARG288      0.1354
     81  NH2       13.3110  -61.9040  -21.7080 N.pl3 288  ARG288      0.1354
     82  N         19.3720  -55.1400  -18.8470 N.3   356  HIS356     -0.1241
     83  CA        18.7090  -54.1320  -19.6540 C.3   356  HIS356      0.1621
     84  C         17.7310  -53.2510  -18.8710 C.2   356  HIS356      0.2264
     85  O         18.1440  -52.4960  -17.9890 O.2   356  HIS356     -0.2867
     86  CB        17.9860  -54.7990  -20.8130 C.3   356  HIS356      0.0745
     87  CG        17.9450  -53.9590  -22.0470 C.ar  356  HIS356      0.0817
     88  ND1       19.0870  -53.5110  -22.6770 N.ar  356  HIS356     -0.2268
     89  CD2       16.9040  -53.4880  -22.7690 C.ar  356  HIS356      0.1154
     90  CE1       18.7470  -52.8030  -23.7380 C.ar  356  HIS356      0.1986
     91  NE2       17.4290  -52.7720  -23.8160 N.ar  356  HIS356     -0.2212
     92  N          7.3100  -55.4480  -20.2130 N.3   391  ARG391     -0.1231
     93  CA         7.2940  -54.3180  -21.1400 C.3   391  ARG391      0.1694
     94  C          7.2500  -54.8740  -22.5700 C.2   391  ARG391      0.2592
     95  O          8.2810  -55.2420  -23.1450 O.2   391  ARG391     -0.2718
     96  CB         8.5430  -53.4570  -20.9340 C.3   391  ARG391      0.0321
     97  CG         8.5210  -52.1020  -21.6350 C.3   391  ARG391      0.0489
     98  CD         9.7720  -51.9290  -22.4580 C.3   391  ARG391      0.2205
     99  NE        10.8850  -52.6600  -21.8630 N.pl3 391  ARG391     -0.0865
    100  CZ        12.0930  -52.7390  -22.4050 C.cat 391  ARG391      0.5346
    101  NH1       12.3370  -52.1230  -23.5500 N.pl3 391  ARG391      0.1354
    102  NH2       13.0510  -53.4360  -21.8090 N.pl3 391  ARG391      0.1354
    103  N          6.0360  -54.9290  -23.1200 N.am  392  LEU392     -0.1966
    104  CA         5.7660  -55.4650  -24.4530 C.3   392  LEU392      0.1728
    105  C          6.2240  -54.6160  -25.6450 C.2   392  LEU392      0.2616
    106  O          6.9040  -53.6020  -25.4860 O.2   392  LEU392     -0.2715
    107  CB         4.2680  -55.7510  -24.5940 C.3   392  LEU392      0.0311
    108  CG         3.8730  -56.5120  -25.8640 C.3   392  LEU392      0.0022
    109  CD1        4.3580  -57.9500  -25.7580 C.3   392  LEU392      0.0001
    110  CD2        2.3750  -56.4620  -26.0760 C.3   392  LEU392      0.0001
    111  N          5.8230  -55.0500  -26.8390 N.am  393  GLY393     -0.1955
    112  CA         6.1900  -54.3870  -28.0770 C.3   393  GLY393      0.1869
    113  C          5.6110  -53.0250  -28.4340 C.2   393  GLY393      0.2309
    114  O          6.0030  -52.4790  -29.4690 O.2   393  GLY393     -0.2863
    115  N          6.3330  -50.5970  -27.0940 N.3   395  ASN395     -0.1240
    116  CA         7.5260  -49.8420  -26.6970 C.3   395  ASN395      0.1653
    117  C          7.4450  -48.6600  -25.7340 C.2   395  ASN395      0.2266
    118  O          6.9410  -47.5780  -26.0630 O.2   395  ASN395     -0.2867
    119  CB         8.2870  -49.4540  -27.9680 C.3   395  ASN395      0.1155
    120  CG         8.6640  -50.6740  -28.7950 C.2   395  ASN395      0.2627
    121  OD1        9.3900  -51.5470  -28.3270 O.2   395  ASN395     -0.2716
    122  ND2        8.1570  -50.7500  -30.0120 N.am  395  ASN395     -0.0877
@<TRIPOS>BOND
     1    65    64    2
     2     5     6    1
     3    64    63    1
     4     6     9    1
     5     6     7    1
     6    11    13   ar
     7    11    10   ar
     8    13    15   ar
     9     8     7    2
    10     9    10    1
    11     2     1    1
    12     2     3    1
    13    63    62    1
    14    63    66    1
    15    10    12   ar
    16    15    14   ar
    17     3     4    2
    18    66    67    1
    19    12    14   ar
    20   122   120   am
    21    61    59    1
    22   114   113    2
    23    57    56    2
    24    67    68    1
    25   120   121    2
    26   120   119    1
    27    56    55    1
    28   113   112    1
    29    69    68   ar
    30    68    70   ar
    31    59    60    1
    32    59    58    1
    33   112   111    1
    34   119   116    1
    35    55    58    1
    36    55    54    1
    37   115   116    1
    38   111   105   am
    39   116   117    1
    40    71    72    1
    41    45    46   ar
    42    45    43   ar
    43    52    51    1
    44    52    53    1
    45    46    44   ar
    46   110   108    1
    47   118   117    2
    48    72    75    1
    49    72    73    1
    50    51    48    1
    51   108   109    1
    52   108   107    1
    53    49    50    2
    54    49    48    1
    55   105   106    2
    56   105   104    1
    57    43    42   ar
    58    75    76    1
    59    76    77    1
    60    53    47    1
    61    48    47    1
    62    73    74    2
    63    44    42   ar
    64   107   104    1
    65    42    41    1
    66   104   103    1
    67    47    39   am
    68    91    90   ar
    69    91    89   ar
    70    77    78    1
    71    90    88   ar
    72   101   100    1
    73    39    40    2
    74    39    38    1
    75    95    94    2
    76    41    38    1
    77   103    94   am
    78    78    79    2
    79    89    87   ar
    80    38    37    1
    81    88    87   ar
    82    94    93    1
    83    98    99    1
    84    98    97    1
    85   100    99    2
    86   100   102    1
    87    79    80    1
    88    79    81    1
    89    87    86    1
    90    97    96    1
    91    24    22   am
    92    28    27    2
    93    37    27   am
    94    93    96    1
    95    93    92    1
    96    86    83    1
    97    22    23    2
    98    22    21    1
    99    27    26    1
   100    21    20    1
   101    83    84    1
   102    83    82    1
   103    26    25    1
   104    26    29    1
   105    19    18    2
   106    25    18   am
   107    18    17    1
   108    84    85    2
   109    20    17    1
   110    29    30    1
   111    17    16    1
   112    32    30   ar
   113    32    34   ar
   114    30    31   ar
   115    34    35   ar
   116    31    33   ar
   117    35    33   ar
   118    35    36    1
