@<TRIPOS>MOLECULE
tmp/2b76C00.pdb
 88 83 0 0 0
SMALL
GASTEIGER

@<TRIPOS>ATOM
      1  N         33.8450   13.1610  -76.8390 N.3    42  LEU42      -0.1245
      2  CA        35.2930   13.1100  -76.6500 C.3    42  LEU42       0.1561
      3  C         35.8870   11.7420  -77.0010 C.2    42  LEU42       0.2260
      4  O         36.9620   11.6520  -77.5970 O.2    42  LEU42      -0.2867
      5  CB        35.6200   13.4600  -75.1950 C.3    42  LEU42       0.0270
      6  CG        35.8930   14.9290  -74.9450 C.3    42  LEU42       0.0019
      7  CD1       37.3680   15.0590  -74.6760 C.3    42  LEU42       0.0001
      8  CD2       35.4570   15.8220  -76.1160 C.3    42  LEU42       0.0001
      9  N         35.8660   11.1320  -80.6390 N.3    45  GLY45      -0.1210
     10  CA        36.9410   11.9990  -81.0730 C.3    45  GLY45       0.1956
     11  C         38.2350   11.2570  -80.9770 C.2    45  GLY45       0.2611
     12  O         38.9830   11.1940  -81.9410 O.2    45  GLY45      -0.2717
     13  N         38.4890   10.6830  -79.8080 N.am   46  LEU46      -0.1979
     14  CA        39.7130    9.9420  -79.6150 C.3    46  LEU46       0.1596
     15  C         39.8450    8.8040  -80.6420 C.2    46  LEU46       0.2287
     16  O         40.8870    8.6990  -81.2670 O.2    46  LEU46      -0.2864
     17  CB        39.8390    9.3670  -78.2200 C.3    46  LEU46       0.0297
     18  CG        41.2990    9.0110  -77.9330 C.3    46  LEU46       0.0022
     19  CD1       42.1190   10.2620  -78.1150 C.3    46  LEU46       0.0001
     20  CD2       41.4560    8.4610  -76.5600 C.3    46  LEU46       0.0001
     21  N         40.3150   10.3380  -84.4310 N.3    49  LEU49      -0.1245
     22  CA        41.6120   10.9200  -84.5730 C.3    49  LEU49       0.1561
     23  C         42.6500    9.8270  -84.4880 C.2    49  LEU49       0.2260
     24  O         43.7850   10.0510  -84.1180 O.2    49  LEU49      -0.2867
     25  CB        41.8050   11.9640  -83.4410 C.3    49  LEU49       0.0270
     26  CG        43.0400   12.8570  -83.2160 C.3    49  LEU49       0.0019
     27  CD1       42.6070   14.0430  -82.4050 C.3    49  LEU49       0.0001
     28  CD2       44.1070   12.0970  -82.4710 C.3    49  LEU49       0.0001
     29  N         38.5870   11.6060  -88.8970 N.3    56  TRP56      -0.1241
     30  CA        38.5430   12.7220  -88.0060 C.3    56  TRP56       0.1605
     31  C         37.8290   13.9300  -88.6620 C.2    56  TRP56       0.2264
     32  O         37.3600   14.8340  -87.9530 O.2    56  TRP56      -0.2867
     33  CB        39.9410   13.0470  -87.5570 C.3    56  TRP56       0.0550
     34  CG        39.9870   14.4030  -87.0520 C.ar   56  TRP56       0.0003
     35  CD1       40.2010   15.5320  -87.7800 C.ar   56  TRP56       0.0946
     36  CD2       39.6970   14.8330  -85.7150 C.ar   56  TRP56       0.0152
     37  NE1       40.0600   16.6440  -86.9840 N.ar   56  TRP56      -0.2442
     38  CE2       39.7570   16.2440  -85.7080 C.ar   56  TRP56       0.0810
     39  CE3       39.3910   14.1630  -84.5200 C.ar   56  TRP56       0.0012
     40  CZ2       39.5290   16.9960  -84.5520 C.ar   56  TRP56       0.0191
     41  CZ3       39.1630   14.9070  -83.3870 C.ar   56  TRP56       0.0001
     42  CH2       39.2370   16.3120  -83.4090 C.ar   56  TRP56       0.0015
     43  N         34.2070   13.3440  -88.1790 N.3    59  PHE59      -0.1241
     44  CA        33.8750   13.5470  -86.7660 C.3    59  PHE59       0.1605
     45  C         33.4110   15.0020  -86.7110 C.2    59  PHE59       0.2264
     46  O         32.2850   15.3350  -86.2850 O.2    59  PHE59      -0.2867
     47  CB        35.1510   13.3510  -85.9670 C.3    59  PHE59       0.0534
     48  CG        35.0040   13.6070  -84.4980 C.ar   59  PHE59      -0.0203
     49  CD1       35.2370   14.8780  -83.9710 C.ar   59  PHE59      -0.0042
     50  CD2       34.6220   12.5870  -83.6370 C.ar   59  PHE59      -0.0042
     51  CE1       35.0900   15.1230  -82.5970 C.ar   59  PHE59      -0.0003
     52  CE2       34.4690   12.8100  -82.2910 C.ar   59  PHE59      -0.0003
     53  CZ        34.7040   14.0780  -81.7620 C.ar   59  PHE59      -0.0000
     54  N         30.1860   17.3550  -85.9030 N.3    63  LEU63      -0.1245
     55  CA        30.1770   18.5480  -85.0630 C.3    63  LEU63       0.1561
     56  C         29.6500   19.8030  -85.7640 C.2    63  LEU63       0.2260
     57  O         29.3430   20.7970  -85.0950 O.2    63  LEU63      -0.2867
     58  CB        31.5960   18.8090  -84.5220 C.3    63  LEU63       0.0270
     59  CG        32.0570   17.7350  -83.5330 C.3    63  LEU63       0.0019
     60  CD1       33.5760   17.6970  -83.4280 C.3    63  LEU63       0.0001
     61  CD2       31.4400   17.9920  -82.1790 C.3    63  LEU63       0.0001
     62  N         44.5470   30.2570  -69.5470 N.3   122  VAL122     -0.1231
     63  CA        45.7720   29.5320  -69.7680 C.3   122  VAL122      0.1692
     64  C         45.4870   28.3320  -70.6410 C.2   122  VAL122      0.2591
     65  O         46.3710   27.8670  -71.3390 O.2   122  VAL122     -0.2718
     66  CB        46.4740   29.1900  -68.4470 C.3   122  VAL122      0.0266
     67  CG1       47.8930   28.7220  -68.7030 C.3   122  VAL122      0.0020
     68  CG2       46.4960   30.4090  -67.5690 C.3   122  VAL122      0.0020
     69  N         44.2660   27.7970  -70.6510 N.am  123  ILE123     -0.1980
     70  CA        44.0320   26.6730  -71.6060 C.3   123  ILE123      0.1595
     71  C         43.7020   27.2120  -73.0320 C.2   123  ILE123      0.2287
     72  O         44.2970   26.7300  -73.9980 O.2   123  ILE123     -0.2864
     73  CB        42.9500   25.6390  -71.1590 C.3   123  ILE123      0.0276
     74  CG1       43.6050   24.4810  -70.3800 C.3   123  ILE123      0.0022
     75  CG2       42.3160   24.9570  -72.3700 C.3   123  ILE123      0.0022
     76  CD1       44.1060   24.8000  -68.9900 C.3   123  ILE123      0.0001
     77  N         46.6340   28.0950  -74.9000 N.3   126  VAL126     -0.1231
     78  CA        47.4350   26.9790  -75.3520 C.3   126  VAL126      0.1692
     79  C         46.8530   26.3880  -76.6370 C.2   126  VAL126      0.2591
     80  O         47.5370   26.3170  -77.6230 O.2   126  VAL126     -0.2718
     81  CB        47.6480   25.9360  -74.2350 C.3   126  VAL126      0.0266
     82  CG1       48.3850   24.6510  -74.7610 C.3   126  VAL126      0.0020
     83  CG2       48.5150   26.5560  -73.1520 C.3   126  VAL126      0.0020
     84  N         45.6110   25.9470  -76.6470 N.am  127  ALA127     -0.1980
     85  CA        45.0680   25.3850  -77.8600 C.3   127  ALA127      0.1597
     86  C         44.9560   26.4200  -78.9980 C.2   127  ALA127      0.2287
     87  O         44.8760   26.0320  -80.1730 O.2   127  ALA127     -0.2864
     88  CB        43.7050   24.8180  -77.6090 C.3   127  ALA127      0.0319
@<TRIPOS>BOND
     1    29    30    1
     2    31    30    1
     3    31    32    2
     4    43    44    1
     5    30    33    1
     6    35    34   ar
     7    35    37   ar
     8    33    34    1
     9    34    36   ar
    10    37    38   ar
    11    44    45    1
    12    44    47    1
    13    45    46    2
    14    47    48    1
    15    54    55    1
    16    56    57    2
    17    56    55    1
    18    36    38   ar
    19    36    39   ar
    20    38    40   ar
    21    55    58    1
    22    22    23    1
    23    22    21    1
    24    22    25    1
    25    40    42   ar
    26    58    59    1
    27    39    41   ar
    28    48    49   ar
    29    48    50   ar
    30    23    24    2
    31    49    51   ar
    32    50    52   ar
    33    59    60    1
    34    59    61    1
    35    25    26    1
    36    42    41   ar
    37    26    28    1
    38    26    27    1
    39    51    53   ar
    40    52    53   ar
    41    12    11    2
    42    16    15    2
    43    10    11    1
    44    10     9    1
    45    11    13   am
    46    15    14    1
    47    87    86    2
    48    13    14    1
    49    14    17    1
    50    86    85    1
    51    17    18    1
    52    19    18    1
    53    18    20    1
    54    85    88    1
    55    85    84    1
    56    80    79    2
    57     4     3    2
    58     3     2    1
    59     1     2    1
    60     2     5    1
    61    84    79   am
    62    79    78    1
    63     8     6    1
    64    78    77    1
    65    78    81    1
    66     5     6    1
    67     6     7    1
    68    82    81    1
    69    81    83    1
    70    72    71    2
    71    71    70    1
    72    75    73    1
    73    70    73    1
    74    70    69    1
    75    65    64    2
    76    73    74    1
    77    69    64   am
    78    64    63    1
    79    74    76    1
    80    63    62    1
    81    63    66    1
    82    67    66    1
    83    66    68    1
