@<TRIPOS>MOLECULE
tmp/2b7aA00.pdb
 170 162 0 0 0
SMALL
GASTEIGER

@<TRIPOS>ATOM
      1  N        113.7930   60.5860   14.3520 N.3    13  LEU13      -0.1231
      2  CA       113.3810   61.9380   13.9710 C.3    13  LEU13       0.1693
      3  C        112.1320   61.9540   13.1000 C.2    13  LEU13       0.2593
      4  O        111.2190   62.7460   13.3340 O.2    13  LEU13      -0.2718
      5  CB       114.5200   62.6910   13.2760 C.3    13  LEU13       0.0284
      6  CG       115.6640   63.1970   14.1550 C.3    13  LEU13       0.0019
      7  CD1      116.7340   63.8280   13.2880 C.3    13  LEU13       0.0001
      8  CD2      115.1690   64.1810   15.2130 C.3    13  LEU13       0.0001
      9  N        112.1000   61.0850   12.0960 N.am   14  GLY14      -0.1942
     10  CA       110.9410   60.9760   11.2230 C.3    14  GLY14       0.2014
     11  C        111.0350   59.8440   10.2220 C.2    14  GLY14       0.2639
     12  O        112.0840   59.2110   10.0820 O.2    14  GLY14      -0.2714
     13  N        109.9230   59.5950    9.5360 N.am   15  LYS15      -0.1963
     14  CA       109.8460   58.6010    8.4680 C.3    15  LYS15       0.1728
     15  C        109.1650   59.2030    7.2420 C.2    15  LYS15       0.2616
     16  O        108.1790   59.9350    7.3650 O.2    15  LYS15      -0.2715
     17  CB       109.0690   57.3660    8.9310 C.3    15  LYS15       0.0311
     18  CG       109.7990   56.5000    9.9450 C.3    15  LYS15       0.0038
     19  CD       108.9900   55.2620   10.2900 C.3    15  LYS15       0.0206
     20  CE       109.7350   54.3740   11.2720 C.3    15  LYS15       0.1093
     21  NZ       108.9550   53.1460   11.5900 N.3    15  LYS15      -0.1314
     22  N        109.6900   58.8850    6.0630 N.am   16  GLY16      -0.1955
     23  CA       109.1360   59.3960    4.8130 C.3    16  GLY16       0.1869
     24  C        109.3450   58.4510    3.6490 C.2    16  GLY16       0.2309
     25  O        110.4630   57.9810    3.4140 O.2    16  GLY16      -0.2863
     26  N        112.1830   55.7950    3.4980 N.3    19  GLY19      -0.1225
     27  CA       113.3220   56.1400    4.3410 C.3    19  GLY19       0.1811
     28  C        112.9470   56.4710    5.7740 C.2    19  GLY19       0.2280
     29  O        111.7780   56.7190    6.0910 O.2    19  GLY19      -0.2866
     30  N        114.7170   58.6650    9.2850 N.3    21  VAL21      -0.1245
     31  CA       115.7630   59.5740    9.7520 C.3    21  VAL21       0.1561
     32  C        115.9240   59.4830   11.2670 C.2    21  VAL21       0.2260
     33  O        114.9370   59.4510   12.0080 O.2    21  VAL21      -0.2867
     34  CB       115.5060   61.0450    9.3200 C.3    21  VAL21       0.0252
     35  CG1      116.6900   61.9350    9.6850 C.3    21  VAL21       0.0019
     36  CG2      115.2560   61.1260    7.8230 C.3    21  VAL21       0.0019
     37  N        121.9230   64.1980   11.3720 N.3    38  ALA38      -0.1245
     38  CA       120.7520   63.4360   10.9710 C.3    38  ALA38       0.1562
     39  C        121.1820   62.3080   10.0420 C.2    38  ALA38       0.2260
     40  O        121.9770   62.5130    9.1210 O.2    38  ALA38      -0.2867
     41  CB       119.7420   64.3320   10.2930 C.3    38  ALA38       0.0290
     42  N        119.8430   59.2550    7.5710 N.3    40  LYS40      -0.1245
     43  CA       118.7620   58.6320    6.8190 C.3    40  LYS40       0.1561
     44  C        119.1760   57.2580    6.3040 C.2    40  LYS40       0.2260
     45  O        120.2570   57.0970    5.7350 O.2    40  LYS40      -0.2867
     46  CB       118.3120   59.5240    5.6550 C.3    40  LYS40       0.0271
     47  CG       117.0980   58.9920    4.8970 C.3    40  LYS40       0.0035
     48  CD       116.6110   59.9590    3.8300 C.3    40  LYS40       0.0206
     49  CE       115.3540   59.4320    3.1510 C.3    40  LYS40       0.1093
     50  NZ       114.8530   60.3390    2.0760 N.3    40  LYS40      -0.1314
     51  N        118.9330   71.3860    2.5330 N.3    69  VAL69      -0.1245
     52  CA       119.6190   70.6980    3.6310 C.3    69  VAL69       0.1561
     53  C        121.0160   70.2310    3.2050 C.2    69  VAL69       0.2260
     54  O        121.1960   69.7090    2.1050 O.2    69  VAL69      -0.2867
     55  CB       118.7630   69.5160    4.2000 C.3    69  VAL69       0.0252
     56  CG1      118.6570   68.3560    3.1950 C.3    69  VAL69       0.0019
     57  CG2      119.3160   69.0300    5.5350 C.3    69  VAL69       0.0019
     58  N        123.2370   63.8190    6.9880 N.3    83  MET83      -0.1230
     59  CA       122.8950   65.2070    6.7070 C.3    83  MET83       0.1702
     60  C        123.1550   66.0550    7.9410 C.2    83  MET83       0.2592
     61  O        123.3350   65.5220    9.0430 O.2    83  MET83      -0.2718
     62  CB       121.4190   65.3280    6.3150 C.3    83  MET83       0.0401
     63  CG       121.0670   64.7550    4.9460 C.3    83  MET83       0.0596
     64  SD       119.2880   64.7150    4.6500 S.3    83  MET83      -0.1393
     65  CE       118.8270   63.2420    5.5680 C.3    83  MET83       0.0692
     66  N        123.1710   67.3740    7.7580 N.am   84  GLU84      -0.1966
     67  CA       123.1900   68.2940    8.8940 C.3    84  GLU84       0.1733
     68  C        121.9160   68.1140    9.7220 C.2    84  GLU84       0.2616
     69  O        120.8480   67.8050    9.1790 O.2    84  GLU84      -0.2715
     70  CB       123.3250   69.7500    8.4330 C.3    84  GLU84       0.0429
     71  CG       122.1600   70.2600    7.5840 C.3    84  GLU84       0.1163
     72  CD       122.1850   71.7620    7.3600 C.2    84  GLU84       0.3649
     73  OE1      121.5960   72.2180    6.3590 O.co2  84  GLU84      -0.2457
     74  OE2      122.7810   72.4930    8.1790 O.co2  84  GLU84      -0.2457
     75  N        122.0410   68.2920   11.0320 N.am   85  TYR85      -0.1960
     76  CA       120.8850   68.2560   11.9180 C.3    85  TYR85       0.1771
     77  C        120.3010   69.6540   12.0440 C.2    85  TYR85       0.2619
     78  O        120.9900   70.5950   12.4510 O.2    85  TYR85      -0.2715
     79  CB       121.2640   67.7000   13.2940 C.3    85  TYR85       0.0574
     80  CG       120.1660   67.7900   14.3360 C.ar   85  TYR85      -0.0198
     81  CD1      118.9910   67.0470   14.2130 C.ar   85  TYR85      -0.0009
     82  CD2      120.3100   68.6090   15.4550 C.ar   85  TYR85      -0.0009
     83  CE1      117.9800   67.1270   15.1770 C.ar   85  TYR85       0.0417
     84  CE2      119.3070   68.6930   16.4260 C.ar   85  TYR85       0.0417
     85  CZ       118.1490   67.9490   16.2790 C.ar   85  TYR85       0.1957
     86  OH       117.1570   68.0330   17.2320 O.3    85  TYR85      -0.2866
     87  N        119.0300   69.7800   11.6760 N.am   86  LEU86      -0.1964
     88  CA       118.3180   71.0470   11.7700 C.3    86  LEU86       0.1713
     89  C        117.3750   71.0130   12.9710 C.2    86  LEU86       0.2458
     90  O        116.3260   70.3650   12.9290 O.2    86  LEU86      -0.2730
     91  CB       117.6010   71.3700   10.4560 C.3    86  LEU86       0.0310
     92  CG       118.5430   71.5830    9.2570 C.3    86  LEU86       0.0022
     93  CD1      117.7740   71.8120    7.9710 C.3    86  LEU86       0.0001
     94  CD2      119.5150   72.7340    9.5030 C.3    86  LEU86       0.0001
     95  N        117.7550   71.7240   14.0490 N.am   87  PRO87      -0.2716
     96  CA       117.2180   71.5070   15.3960 C.3    87  PRO87       0.1536
     97  C        115.7340   71.8390   15.5860 C.2    87  PRO87       0.2599
     98  O        115.1310   71.3800   16.5550 O.2    87  PRO87      -0.2715
     99  CB       118.0930   72.4130   16.2710 C.3    87  PRO87       0.0310
    100  CG       118.5540   73.4880   15.3550 C.3    87  PRO87       0.0237
    101  CD       118.7440   72.8200   14.0230 C.3    87  PRO87       0.0939
    102  N        115.1530   72.6140   14.6750 N.am   88  TYR88      -0.1960
    103  CA       113.7470   72.9940   14.7990 C.3    88  TYR88       0.1771
    104  C        112.7790   72.0470   14.0820 C.2    88  TYR88       0.2620
    105  O        111.5610   72.2130   14.1760 O.2    88  TYR88      -0.2715
    106  CB       113.5340   74.4550   14.3800 C.3    88  TYR88       0.0574
    107  CG       114.1060   75.4490   15.3710 C.ar   88  TYR88      -0.0198
    108  CD1      115.4290   75.8840   15.2740 C.ar   88  TYR88      -0.0009
    109  CD2      113.3280   75.9380   16.4210 C.ar   88  TYR88      -0.0009
    110  CE1      115.9620   76.7880   16.1970 C.ar   88  TYR88       0.0417
    111  CE2      113.8470   76.8420   17.3420 C.ar   88  TYR88       0.0417
    112  CZ       115.1630   77.2630   17.2250 C.ar   88  TYR88       0.1957
    113  OH       115.6730   78.1560   18.1410 O.3    88  TYR88      -0.2866
    114  N        113.3220   71.0510   13.3820 N.am   89  GLY89      -0.1940
    115  CA       112.5140   70.0070   12.7490 C.3    89  GLY89       0.2014
    116  C        111.7640   70.4520   11.5100 C.2    89  GLY89       0.2639
    117  O        112.1170   71.4550   10.8920 O.2    89  GLY89      -0.2714
    118  N        110.7270   69.7000   11.1420 N.am   90  SER90      -0.1949
    119  CA       109.9360   70.0250    9.9520 C.3    90  SER90       0.1924
    120  C        109.0920   71.2790   10.1650 C.2    90  SER90       0.2314
    121  O        108.6580   71.5590   11.2840 O.2    90  SER90      -0.2863
    122  CB       109.0440   68.8520    9.5320 C.3    90  SER90       0.2116
    123  OG       108.0100   68.6160   10.4750 O.3    90  SER90      -0.2180
    124  N        105.5000   70.5600   11.6340 N.3    93  ASP93      -0.1239
    125  CA       105.4230   70.4420   13.0900 C.3    93  ASP93       0.1674
    126  C        105.7450   71.7540   13.7970 C.2    93  ASP93       0.2266
    127  O        105.1140   72.0880   14.7960 O.2    93  ASP93      -0.2867
    128  CB       106.3580   69.3370   13.5940 C.3    93  ASP93       0.1410
    129  CG       105.9550   67.9550   13.1080 C.2    93  ASP93       0.3668
    130  OD1      106.8610   67.1330   12.8550 O.co2  93  ASP93      -0.2456
    131  OD2      104.7410   67.6820   12.9790 O.co2  93  ASP93      -0.2456
    132  N        105.8520   68.9710    5.3490 N.3   134  ARG134     -0.1231
    133  CA       106.4910   67.8560    6.0720 C.3   134  ARG134      0.1694
    134  C        107.9240   67.5980    5.5890 C.2   134  ARG134      0.2592
    135  O        108.7340   67.0130    6.3140 O.2   134  ARG134     -0.2718
    136  CB       105.6550   66.5720    5.9600 C.3   134  ARG134      0.0321
    137  CG       105.5760   65.9960    4.5520 C.3   134  ARG134      0.0489
    138  CD       104.6910   64.7610    4.4710 C.3   134  ARG134      0.2205
    139  NE       104.5220   64.3550    3.0740 N.pl3 134  ARG134     -0.0865
    140  CZ       103.5180   64.7400    2.2870 C.cat 134  ARG134      0.5346
    141  NH1      102.5550   65.5320    2.7510 N.pl3 134  ARG134      0.1354
    142  NH2      103.4720   64.3230    1.0300 N.pl3 134  ARG134      0.1354
    143  N        108.2170   68.0370    4.3660 N.am  135  ASN135     -0.1974
    144  CA       109.5360   67.8710    3.7540 C.3   135  ASN135      0.1688
    145  C        110.3960   69.1360    3.7800 C.2   135  ASN135      0.2292
    146  O        111.4790   69.1760    3.1920 O.2   135  ASN135     -0.2864
    147  CB       109.3860   67.3480    2.3230 C.3   135  ASN135      0.1181
    148  CG       108.9190   65.9060    2.2820 C.2   135  ASN135      0.2629
    149  OD1      109.3220   65.0920    3.1090 O.2   135  ASN135     -0.2716
    150  ND2      108.0640   65.5840    1.3190 N.am  135  ASN135     -0.0877
    151  N        112.3770   71.7710    6.3410 N.3   137  LEU137     -0.1245
    152  CA       112.9730   71.7940    7.6710 C.3   137  LEU137      0.1561
    153  C        113.3080   73.2130    8.0930 C.2   137  LEU137      0.2260
    154  O        113.5220   74.0870    7.2530 O.2   137  LEU137     -0.2867
    155  CB       114.2380   70.9360    7.7160 C.3   137  LEU137      0.0270
    156  CG       114.1510   69.4600    7.3270 C.3   137  LEU137      0.0019
    157  CD1      115.5520   68.9120    7.1900 C.3   137  LEU137      0.0001
    158  CD2      113.3500   68.6460    8.3400 C.3   137  LEU137      0.0001
    159  N        114.1830   69.7330    2.7510 N.3   147  GLY147     -0.1210
    160  CA       114.8940   68.7990    3.6250 C.3   147  GLY147      0.1956
    161  C        114.9090   67.3250    3.2680 C.2   147  GLY147      0.2611
    162  O        115.5300   66.5250    3.9690 O.2   147  GLY147     -0.2717
    163  N        114.2270   66.9570    2.1870 N.am  148  ASP148     -0.1973
    164  CA       114.2030   65.5680    1.7370 C.3   148  ASP148      0.1709
    165  C        114.0850   65.4980    0.2260 C.2   148  ASP148      0.2293
    166  O        113.4350   66.3460   -0.3860 O.2   148  ASP148     -0.2864
    167  CB       113.0440   64.8030    2.3770 C.3   148  ASP148      0.1436
    168  CG       113.1700   63.3060    2.1870 C.2   148  ASP148      0.3671
    169  OD1      113.9060   62.6740    2.9710 O.co2 148  ASP148     -0.2456
    170  OD2      112.5440   62.7640    1.2480 O.co2 148  ASP148     -0.2456
@<TRIPOS>BOND
     1   166   165    2
     2   165   164    1
     3   142   140    1
     4   170   168   ar
     5   150   148   am
     6   164   163    1
     7   164   167    1
     8    50    49    1
     9    54    53    2
    10   163   161   am
    11   168   167    1
    12   168   169   ar
    13   148   147    1
    14   148   149    2
    15   140   141    1
    16   140   139    2
    17   147   144    1
    18    51    52    1
    19   159   160    1
    20   139   138    1
    21    49    48    1
    22   146   145    2
    23    56    55    1
    24    53    52    1
    25   161   160    1
    26   161   162    2
    27    25    24    2
    28    26    27    1
    29    52    55    1
    30    24    23    1
    31   144   145    1
    32   144   143    1
    33    48    47    1
    34    55    57    1
    35    27    28    1
    36   143   134   am
    37   138   137    1
    38   137   136    1
    39    64    63    1
    40    64    65    1
    41    23    22    1
    42    47    46    1
    43    63    62    1
    44   132   133    1
    45   134   133    1
    46   134   135    2
    47    46    43    1
    48    45    44    2
    49    28    29    2
    50   136   133    1
    51    22    15   am
    52    44    43    1
    53    62    59    1
    54   151   152    1
    55    73    72   ar
    56    59    58    1
    57    59    60    1
    58    43    42    1
    59   157   156    1
    60    15    16    2
    61    15    14    1
    62   154   153    2
    63   156   155    1
    64   156   158    1
    65    72    71    1
    66    72    74   ar
    67    71    70    1
    68   152   155    1
    69   152   153    1
    70    66    60   am
    71    66    67    1
    72    36    34    1
    73    60    61    2
    74    93    92    1
    75    70    67    1
    76    14    17    1
    77    14    13    1
    78    67    68    1
    79    17    18    1
    80    40    39    2
    81    69    68    2
    82    92    94    1
    83    92    91    1
    84    30    31    1
    85    34    35    1
    86    34    31    1
    87   122   119    1
    88   122   123    1
    89    13    11   am
    90    68    75   am
    91    31    32    1
    92    18    19    1
    93   119   120    1
    94   119   118    1
    95    39    38    1
    96    12    11    2
    97   120   121    2
    98    11    10    1
    99    19    20    1
   100    41    38    1
   101    91    88    1
   102   117   116    2
   103    38    37    1
   104    75    76    1
   105   118   116   am
   106    10     9    1
   107    32    33    2
   108    20    21    1
   109   116   115    1
   110   124   125    1
   111    87    88    1
   112    87    77   am
   113    88    89    1
   114    76    77    1
   115    76    79    1
   116    77    78    2
   117     9     3   am
   118   115   114    1
   119   130   129   ar
   120    90    89    2
   121    89    95   am
   122   131   129   ar
   123   125   128    1
   124   125   126    1
   125     3     4    2
   126     3     2    1
   127   129   128    1
   128     5     2    1
   129     5     6    1
   130     7     6    1
   131    79    80    1
   132   114   104   am
   133   126   127    2
   134     2     1    1
   135   101    95    1
   136   101   100    1
   137    95    96    1
   138   104   105    2
   139   104   103    1
   140     6     8    1
   141    81    80   ar
   142    81    83   ar
   143    80    82   ar
   144   106   103    1
   145   106   107    1
   146   102   103    1
   147   102    97   am
   148    83    85   ar
   149   108   107   ar
   150   108   110   ar
   151   100    99    1
   152   107   109   ar
   153    96    97    1
   154    96    99    1
   155    82    84   ar
   156    97    98    2
   157   110   112   ar
   158    85    84   ar
   159    85    86    1
   160   109   111   ar
   161   112   111   ar
   162   112   113    1
