@<TRIPOS>MOLECULE
tmp/2b7dB00.pdb
 183 179 0 0 0
SMALL
GASTEIGER

@<TRIPOS>ATOM
      1  N        -11.6300   -1.8960    1.0760 N.3    25  LEU25      -0.1231
      2  CA       -12.5990   -1.8810    2.2110 C.3    25  LEU25       0.1693
      3  C        -11.7980   -1.6110    3.5030 C.2    25  LEU25       0.2592
      4  O        -11.8500   -0.5260    4.0610 O.2    25  LEU25      -0.2718
      5  CB       -13.2970   -3.2510    2.2080 C.3    25  LEU25       0.0284
      6  CG       -14.2990   -3.3840    3.3510 C.3    25  LEU25       0.0019
      7  CD1      -15.4490   -2.3920    3.1840 C.3    25  LEU25       0.0001
      8  CD2      -14.8880   -4.8140    3.4450 C.3    25  LEU25       0.0001
      9  N        -11.0660   -2.6050    3.9340 N.am   26  CYS26      -0.1970
     10  CA       -10.2300   -2.5100    5.1810 C.3    26  CYS26       0.1712
     11  C         -8.9510   -3.3030    4.9810 C.2    26  CYS26       0.2296
     12  O         -8.6310   -3.7250    3.8810 O.2    26  CYS26      -0.2864
     13  CB       -11.0710   -3.0730    6.3950 C.3    26  CYS26       0.0983
     14  SG       -12.4040   -2.0060    7.0120 S.3    26  CYS26      -0.0798
     15  N        -16.3130   -3.6980   12.4390 N.3    41  HIS41      -0.1226
     16  CA       -17.0680   -2.5230   11.8500 C.3    41  HIS41       0.1752
     17  C        -16.9860   -2.4080   10.3330 C.2    41  HIS41       0.2596
     18  O        -17.8070   -1.6950    9.7750 O.2    41  HIS41      -0.2718
     19  CB       -16.6070   -1.0950   12.4430 C.3    41  HIS41       0.0759
     20  CG       -15.1920   -0.5760   12.1220 C.ar   41  HIS41       0.0818
     21  ND1      -14.1300   -0.9580   12.7590 N.ar   41  HIS41      -0.2268
     22  CD2      -14.7440    0.3360   11.1730 C.ar   41  HIS41       0.1154
     23  CE1      -13.0760   -0.3700   12.2880 C.ar   41  HIS41       0.1986
     24  NE2      -13.4280    0.4170   11.3300 N.ar   41  HIS41      -0.2212
     25  N        -16.0420   -3.0710    9.7280 N.am   42  CYS42      -0.1970
     26  CA       -15.8810   -3.0270    8.2410 C.3    42  CYS42       0.1712
     27  C        -17.0020   -3.7390    7.4990 C.2    42  CYS42       0.2296
     28  O        -17.1380   -3.5580    6.3060 O.2    42  CYS42      -0.2864
     29  CB       -14.6660   -3.6890    7.8750 C.3    42  CYS42       0.0983
     30  SG       -13.1800   -2.9900    8.5880 S.3    42  CYS42      -0.0798
     31  N        -20.1920   -3.4980    8.4450 N.3    44  ASP44      -0.1225
     32  CA       -21.5060   -2.9430    8.9020 C.3    44  ASP44       0.1805
     33  C        -22.3830   -2.6070    7.7200 C.2    44  ASP44       0.2597
     34  O        -23.5860   -2.5700    7.8730 O.2    44  ASP44      -0.2718
     35  CB       -21.3840   -1.6260    9.7130 C.3    44  ASP44       0.1424
     36  CG       -20.8320   -1.7880   11.1520 C.2    44  ASP44       0.3668
     37  OD1      -21.0890   -2.8200   11.7420 O.co2  44  ASP44      -0.2456
     38  OD2      -20.1870   -0.8580   11.6070 O.co2  44  ASP44      -0.2456
     39  N        -21.7950   -2.3540    6.5860 N.am   45  LYS45      -0.1979
     40  CA       -22.6050   -2.0110    5.3740 C.3    45  LYS45       0.1596
     41  C        -22.1640   -2.8640    4.1640 C.2    45  LYS45       0.2287
     42  O        -21.7340   -2.3440    3.1460 O.2    45  LYS45      -0.2864
     43  CB       -22.4270   -0.4830    5.1040 C.3    45  LYS45       0.0298
     44  CG       -22.7160    0.2910    6.4280 C.3    45  LYS45       0.0038
     45  CD       -22.7700    1.8200    6.2230 C.3    45  LYS45       0.0206
     46  CE       -21.4510    2.3720    5.6090 C.3    45  LYS45       0.1093
     47  NZ       -21.4840    3.8700    5.5560 N.3    45  LYS45      -0.1314
     48  N        -21.8390   -0.3360   14.4270 N.3    85  GLY85      -0.1225
     49  CA       -21.8550    1.1350   14.6140 C.3    85  GLY85       0.1811
     50  C        -20.9770    1.4500   15.8220 C.2    85  GLY85       0.2280
     51  O        -20.5200    2.5700   15.9280 O.2    85  GLY85      -0.2866
     52  N         -5.6140    6.1890    4.3600 N.3   134  GLN134     -0.1245
     53  CA        -5.1980    7.6330    4.2660 C.3   134  GLN134      0.1566
     54  C         -3.8640    7.9120    4.9040 C.2   134  GLN134      0.2260
     55  O         -3.5160    7.3350    5.9290 O.2   134  GLN134     -0.2867
     56  CB        -6.2650    8.4790    4.9130 C.3   134  GLN134      0.0367
     57  CG        -7.5480    8.3220    4.1010 C.3   134  GLN134      0.0905
     58  CD        -8.6940    9.0920    4.7520 C.2   134  GLN134      0.2608
     59  OE1       -9.7420    9.2700    4.1670 O.2   134  GLN134     -0.2717
     60  NE2       -8.5750    9.5640    5.9460 N.am  134  GLN134     -0.0878
     61  N         -7.6860   13.2810    6.1950 N.3   138  ARG138     -0.1245
     62  CA        -8.6960   13.1430    5.0720 C.3   138  ARG138      0.1563
     63  C         -7.9110   13.3150    3.7640 C.2   138  ARG138      0.2260
     64  O         -8.3140   13.9060    2.7890 O.2   138  ARG138     -0.2867
     65  CB        -9.7850   14.2400    5.2630 C.3   138  ARG138      0.0307
     66  CG       -10.8480   13.6840    6.2770 C.3   138  ARG138      0.0489
     67  CD       -11.6660   14.7870    6.9710 C.3   138  ARG138      0.2205
     68  NE       -10.6790   15.6380    7.7090 N.pl3 138  ARG138     -0.0865
     69  CZ       -10.9600   16.8470    8.1070 C.cat 138  ARG138      0.5346
     70  NH1      -12.1360   17.3710    7.8750 N.pl3 138  ARG138      0.1354
     71  NH2      -10.0210   17.4940    8.7380 N.pl3 138  ARG138      0.1354
     72  N          0.2250    8.0290   13.3010 N.3   186  ASP186     -0.1225
     73  CA        -1.0140    7.2900   13.7070 C.3   186  ASP186      0.1805
     74  C         -1.5150    6.4630   12.5080 C.2   186  ASP186      0.2598
     75  O         -1.0000    6.5470   11.4060 O.2   186  ASP186     -0.2718
     76  CB        -2.1310    8.2850   14.1050 C.3   186  ASP186      0.1424
     77  CG        -3.4050    7.6800   14.7820 C.2   186  ASP186      0.3668
     78  OD1       -3.3140    6.6470   15.4200 O.co2 186  ASP186     -0.2456
     79  OD2       -4.4610    8.2790   14.6480 O.co2 186  ASP186     -0.2456
     80  N         -2.5150    5.6870   12.7690 N.am  187  SER187     -0.1938
     81  CA        -3.1440    4.8280   11.7520 C.3   187  SER187      0.2055
     82  C         -4.3090    5.7500   11.3130 C.2   187  SER187      0.2643
     83  O         -4.5310    6.7650   11.9470 O.2   187  SER187     -0.2714
     84  CB        -3.5900    3.5190   12.4800 C.3   187  SER187      0.2130
     85  OG        -3.9300    3.9680   13.7880 O.3   187  SER187     -0.2179
     86  N         -5.0000    5.4350   10.2540 N.am  188  CYS188     -0.1953
     87  CA        -6.1250    6.3040    9.8260 C.3   188  CYS188      0.1843
     88  C         -7.1260    5.4110    9.1660 C.2   188  CYS188      0.2625
     89  O         -6.9510    4.2040    9.1490 O.2   188  CYS188     -0.2714
     90  CB        -5.6070    7.4310    8.8390 C.3   188  CYS188      0.0997
     91  SG        -6.7590    8.8080    8.5680 S.3   188  CYS188     -0.0797
     92  N         -8.1280    6.0330    8.6340 N.am  189  LYS189     -0.1963
     93  CA        -9.2030    5.2980    7.9410 C.3   189  LYS189      0.1728
     94  C         -8.5330    4.5970    6.7710 C.2   189  LYS189      0.2616
     95  O         -7.5830    5.0870    6.1720 O.2   189  LYS189     -0.2715
     96  CB       -10.2580    6.2840    7.4470 C.3   189  LYS189      0.0311
     97  CG       -11.3950    5.5120    6.8240 C.3   189  LYS189      0.0038
     98  CD       -12.5250    6.4900    6.5300 C.3   189  LYS189      0.0206
     99  CE       -13.6830    5.7030    5.8960 C.3   189  LYS189      0.1093
    100  NZ       -14.8660    6.5850    5.6840 N.3   189  LYS189     -0.1314
    101  N         -9.0610    3.4460    6.4840 N.am  190  GLY190     -0.1955
    102  CA        -8.5230    2.6140    5.3630 C.3   190  GLY190      0.1869
    103  C         -7.5420    1.6110    5.9480 C.2   190  GLY190      0.2309
    104  O         -7.1920    0.6380    5.3050 O.2   190  GLY190     -0.2863
    105  N         -8.1390    0.4450    9.1970 N.3   192  SER192     -0.1273
    106  CA        -9.0010   -0.3760   10.0830 C.3   192  SER192      0.1575
    107  C         -8.8820   -1.8650    9.7340 C.3   192  SER192      0.2036
    108  O         -8.8320   -2.1040    8.5440 O.3   192  SER192     -0.2187
    109  CB       -10.4670   -0.0190    9.9010 C.3   192  SER192      0.2036
    110  OG       -10.8290    1.1290   10.6870 O.3   192  SER192     -0.2187
    111  N         -6.2710   -2.6170   14.0980 N.3   210  VAL210     -0.1231
    112  CA        -6.5570   -1.1450   13.8970 C.3   210  VAL210      0.1692
    113  C         -8.0470   -1.0130   14.0620 C.2   210  VAL210      0.2593
    114  O         -8.7960   -1.6380   13.3290 O.2   210  VAL210     -0.2718
    115  CB        -6.1200   -0.6950   12.4580 C.3   210  VAL210      0.0266
    116  CG1       -6.5120    0.7750   12.2390 C.3   210  VAL210      0.0020
    117  CG2       -4.6010   -0.7720   12.3640 C.3   210  VAL210      0.0020
    118  N         -8.4560   -0.1860   14.9860 N.am  211  SER211     -0.1938
    119  CA        -9.9100   -0.0190   15.2350 C.3   211  SER211      0.2055
    120  C        -10.5220    1.3970   15.1190 C.2   211  SER211      0.2643
    121  O        -11.3190    1.5990   14.2160 O.2   211  SER211     -0.2714
    122  CB       -10.0750   -0.6530   16.6270 C.3   211  SER211      0.2130
    123  OG       -11.4730   -0.7310   16.9390 O.3   211  SER211     -0.2179
    124  N        -10.1690    2.3040   16.0060 N.am  212  TRP212     -0.1959
    125  CA       -10.7500    3.6600   15.9060 C.3   212  TRP212      0.1771
    126  C         -9.8160    4.7340   16.4420 C.2   212  TRP212      0.2620
    127  O         -8.6890    4.4930   16.8540 O.2   212  TRP212     -0.2715
    128  CB       -12.1260    3.6790   16.6560 C.3   212  TRP212      0.0590
    129  CG       -12.1370    3.2930   18.1410 C.ar  212  TRP212      0.0006
    130  CD1      -12.1370    2.0360   18.6450 C.ar  212  TRP212      0.0946
    131  CD2      -12.1720    4.1680   19.1590 C.ar  212  TRP212      0.0152
    132  NE1      -12.1790    2.2310   19.9530 N.ar  212  TRP212     -0.2442
    133  CE2      -12.2030    3.4800   20.3700 C.ar  212  TRP212      0.0810
    134  CE3      -12.1600    5.5580   19.1390 C.ar  212  TRP212      0.0012
    135  CZ2      -12.2270    4.1810   21.5670 C.ar  212  TRP212      0.0191
    136  CZ3      -12.1860    6.2620   20.3340 C.ar  212  TRP212      0.0001
    137  CH2      -12.2200    5.5700   21.5510 C.ar  212  TRP212      0.0015
    138  N        -10.2780    5.9460   16.4130 N.am  213  GLY213     -0.1940
    139  CA        -9.4430    7.0700   16.9200 C.3   213  GLY213      0.2014
    140  C        -10.2110    8.3550   16.7020 C.2   213  GLY213      0.2639
    141  O        -11.2900    8.3350   16.1420 O.2   213  GLY213     -0.2714
    142  N         -9.6510    9.4350   17.1480 N.am  214  GLN214     -0.1963
    143  CA       -10.2960   10.7810   16.9930 C.3   214  GLN214      0.1733
    144  C         -9.5290   11.2040   15.7900 C.2   214  GLN214      0.2617
    145  O         -8.3410   11.4330   15.9510 O.2   214  GLN214     -0.2715
    146  CB        -9.9510   11.7220   18.1790 C.3   214  GLN214      0.0408
    147  CG       -11.1530   11.9240   19.1100 C.3   214  GLN214      0.0908
    148  CD       -12.1770   12.7100   18.3400 C.2   214  GLN214      0.2608
    149  OE1      -11.8490   13.6930   17.7050 O.2   214  GLN214     -0.2717
    150  NE2      -13.4150   12.3350   18.3520 N.am  214  GLN214     -0.0878
    151  N        -10.1760   11.2750   14.6630 N.am  215  GLY215     -0.1940
    152  CA        -9.4230   11.6900   13.4400 C.3   215  GLY215      0.2014
    153  C         -8.2370   10.7840   13.2550 C.2   215  GLY215      0.2639
    154  O         -8.3350    9.6130   13.5730 O.2   215  GLY215     -0.2714
    155  N         -7.1470   11.2890   12.7520 N.am  216  CYS216     -0.1967
    156  CA        -5.9700   10.4340   12.5570 C.3   216  CYS216      0.1712
    157  C         -4.8920   11.4320   12.8120 C.2   216  CYS216      0.2296
    158  O         -4.7840   12.4100   12.0980 O.2   216  CYS216     -0.2864
    159  CB        -5.9090    9.8920   11.1200 C.3   216  CYS216      0.0983
    160  SG        -7.4350    9.1830   10.4510 S.3   216  CYS216     -0.0798
    161  N         -4.1770    6.2220   18.9120 N.3   223  GLY223     -0.1210
    162  CA        -5.1100    5.3580   18.1310 C.3   223  GLY223      0.1956
    163  C         -5.5170    4.2390   19.0570 C.2   223  GLY223      0.2612
    164  O         -4.6970    3.8610   19.8760 O.2   223  GLY223     -0.2717
    165  N         -6.7250    3.7740   18.8820 N.am  224  VAL224     -0.1965
    166  CA        -7.2770    2.6710   19.7050 C.3   224  VAL224      0.1727
    167  C         -7.3280    1.3650   18.8350 C.2   224  VAL224      0.2616
    168  O         -7.8200    1.3770   17.7040 O.2   224  VAL224     -0.2715
    169  CB        -8.7090    3.1000   20.1830 C.3   224  VAL224      0.0290
    170  CG1       -9.2930    2.0450   21.1850 C.3   224  VAL224      0.0023
    171  CG2       -8.6530    4.5190   20.8390 C.3   224  VAL224      0.0023
    172  N         -6.8100    0.3060   19.4250 N.am  225  TYR225     -0.1974
    173  CA        -6.7290   -1.0570   18.8100 C.3   225  TYR225      0.1639
    174  C         -7.5280   -2.1030   19.5550 C.2   225  TYR225      0.2290
    175  O         -7.6680   -2.0100   20.7560 O.2   225  TYR225     -0.2864
    176  CB        -5.3220   -1.4980   18.8040 C.3   225  TYR225      0.0560
    177  CG        -4.5470   -0.4840   18.0080 C.ar  225  TYR225     -0.0198
    178  CD1       -4.1050    0.7020   18.5820 C.ar  225  TYR225     -0.0009
    179  CD2       -4.3070   -0.7190   16.6740 C.ar  225  TYR225     -0.0009
    180  CE1       -3.4370    1.6370   17.8210 C.ar  225  TYR225      0.0417
    181  CE2       -3.6420    0.2190   15.9240 C.ar  225  TYR225      0.0417
    182  CZ        -3.2030    1.3970   16.4740 C.ar  225  TYR225      0.1957
    183  OH        -2.5590    2.2860   15.6440 O.3   225  TYR225     -0.2866
@<TRIPOS>BOND
     1     1     2    1
     2     5     2    1
     3     5     6    1
     4     2     3    1
     5    64    63    2
     6    42    41    2
     7     7     6    1
     8     6     8    1
     9     3     9   am
    10     3     4    2
    11    63    62    1
    12    12    11    2
    13     9    10    1
    14    57    58    1
    15    57    56    1
    16    41    40    1
    17    59    58    2
    18    53    52    1
    19    53    54    1
    20    53    56    1
    21    58    60   am
    22    54    55    2
    23    11    10    1
    24    62    65    1
    25    62    61    1
    26    43    40    1
    27    43    44    1
    28    10    13    1
    29    65    66    1
    30   104   103    2
    31   102   103    1
    32   102   101    1
    33    40    39    1
    34    47    46    1
    35    46    45    1
    36   100    99    1
    37    99    98    1
    38    95    94    2
    39    45    44    1
    40    66    67    1
    41    28    27    2
    42    13    14    1
    43   101    94   am
    44    98    97    1
    45    39    33   am
    46    94    93    1
    47    97    96    1
    48    67    68    1
    49    14    30    1
    50    96    93    1
    51    27    26    1
    52    68    69    2
    53    33    34    2
    54    33    32    1
    55    29    26    1
    56    29    30    1
    57    70    69    1
    58    93    92    1
    59    69    71    1
    60    26    25    1
    61    31    32    1
    62   108   107    1
    63    91    90    1
    64    91   160    1
    65    92    88   am
    66    90    87    1
    67    32    35    1
    68    89    88    2
    69    88    87    1
    70   105   106    1
    71    35    36    1
    72    25    17   am
    73   107   106    1
    74    18    17    2
    75    87    86    1
    76   109   106    1
    77   109   110    1
    78    86    82   am
    79    17    16    1
    80   160   159    1
    81   159   156    1
    82    36    38   ar
    83    36    37   ar
    84    22    24   ar
    85    22    20   ar
    86    82    81    1
    87    82    83    2
    88    24    23   ar
    89    75    74    2
    90    81    84    1
    91    81    80    1
    92    16    15    1
    93    16    19    1
    94   158   157    2
    95    20    19    1
    96    20    21   ar
    97   116   115    1
    98    23    21   ar
    99   117   115    1
   100   115   112    1
   101    84    85    1
   102    74    80   am
   103    74    73    1
   104   156   155    1
   105   156   157    1
   106   155   153   am
   107   153   152    1
   108   153   154    2
   109    72    73    1
   110   114   113    2
   111   152   151    1
   112    73    76    1
   113   112   113    1
   114   112   111    1
   115   113   118   am
   116    76    77    1
   117   121   120    2
   118    48    49    1
   119    49    50    1
   120    79    77   ar
   121   151   144   am
   122    77    78   ar
   123   118   119    1
   124   120   119    1
   125   120   124   am
   126   119   122    1
   127   183   182    1
   128   144   145    2
   129   144   143    1
   130    50    51    2
   131   125   124    1
   132   125   126    1
   133   125   128    1
   134   181   182   ar
   135   181   179   ar
   136   141   140    2
   137   138   126   am
   138   138   139    1
   139   126   127    2
   140   182   180   ar
   141   122   123    1
   142   128   129    1
   143   179   177   ar
   144   140   139    1
   145   140   142   am
   146   143   142    1
   147   143   146    1
   148   168   167    2
   149   149   148    2
   150   180   178   ar
   151   177   178   ar
   152   177   176    1
   153   162   161    1
   154   162   163    1
   155   129   130   ar
   156   129   131   ar
   157   146   147    1
   158   148   150   am
   159   148   147    1
   160   130   132   ar
   161   176   173    1
   162   173   172    1
   163   173   174    1
   164   167   172   am
   165   167   166    1
   166   165   163   am
   167   165   166    1
   168   163   164    2
   169   134   131   ar
   170   134   136   ar
   171   131   133   ar
   172   174   175    2
   173   166   169    1
   174   132   133   ar
   175   169   171    1
   176   169   170    1
   177   136   137   ar
   178   133   135   ar
   179   137   135   ar
