@<TRIPOS>MOLECULE
tmp/2b7fB00.pdb
 162 153 0 0 0
SMALL
GASTEIGER

@<TRIPOS>ATOM
      1  N         90.7180   45.8200   63.8330 N.3    10  ARG10      -0.1245
      2  CA        89.7090   46.8670   63.5640 C.3    10  ARG10       0.1563
      3  C         88.6220   47.0240   64.6580 C.2    10  ARG10       0.2260
      4  O         88.1570   46.0460   65.2200 O.2    10  ARG10      -0.2867
      5  CB        89.0260   46.6220   62.2060 C.3    10  ARG10       0.0307
      6  CG        89.8970   45.9760   61.2080 C.3    10  ARG10       0.0489
      7  CD        89.7070   46.5320   59.8190 C.3    10  ARG10       0.2205
      8  NE        90.9490   46.2030   59.0980 N.pl3  10  ARG10      -0.0865
      9  CZ        91.0770   45.9330   57.7920 C.cat  10  ARG10       0.5346
     10  NH1       90.0260   45.9300   56.9720 N.pl3  10  ARG10       0.1354
     11  NH2       92.2820   45.6530   57.3000 N.pl3  10  ARG10       0.1354
     12  N         82.3640   48.4730   61.1880 N.3    30  LEU30      -0.1245
     13  CA        83.5710   49.2550   61.5740 C.3    30  LEU30       0.1561
     14  C         83.1970   50.6260   62.1160 C.2    30  LEU30       0.2260
     15  O         82.4960   51.3430   61.4570 O.2    30  LEU30      -0.2867
     16  CB        84.4870   49.4100   60.3490 C.3    30  LEU30       0.0270
     17  CG        85.8290   50.1320   60.4430 C.3    30  LEU30       0.0019
     18  CD1       86.6620   49.4870   61.5060 C.3    30  LEU30       0.0001
     19  CD2       86.5790   50.1290   59.1080 C.3    30  LEU30       0.0001
     20  N         83.9850   54.3150   62.5220 N.3    32  ASP32      -0.1239
     21  CA        84.8710   55.0520   61.6650 C.3    32  ASP32       0.1674
     22  C         84.6120   56.5650   61.7730 C.2    32  ASP32       0.2266
     23  O         83.7020   57.1230   61.1340 O.2    32  ASP32      -0.2867
     24  CB        84.6970   54.4870   60.2700 C.3    32  ASP32       0.1410
     25  CG        85.5390   55.1410   59.2540 C.2    32  ASP32       0.3668
     26  OD1       86.5910   55.7610   59.6380 O.co2  32  ASP32      -0.2456
     27  OD2       85.1480   54.9890   58.0480 O.co2  32  ASP32      -0.2456
     28  N         86.2170   58.6940   60.4990 N.3    34  GLY34      -0.1210
     29  CA        86.5320   59.3540   59.2490 C.3    34  GLY34       0.1956
     30  C         85.5000   59.0770   58.1880 C.2    34  GLY34       0.2612
     31  O         85.7890   59.2410   56.9940 O.2    34  GLY34      -0.2717
     32  N         84.3000   58.6330   58.5800 N.am   35  ALA35      -0.1965
     33  CA        83.2210   58.4670   57.5940 C.3    35  ALA35       0.1728
     34  C         82.1890   59.5080   57.8550 C.2    35  ALA35       0.2616
     35  O         81.7300   59.6320   58.9500 O.2    35  ALA35      -0.2715
     36  CB        82.6200   57.1260   57.6680 C.3    35  ALA35       0.0334
     37  N         81.8110   60.2890   56.8680 N.am   36  ASP36      -0.1957
     38  CA        80.8290   61.3480   57.1750 C.3    36  ASP36       0.1840
     39  C         79.5000   60.6990   57.4980 C.2    36  ASP36       0.2621
     40  O         78.6850   61.2560   58.2130 O.2    36  ASP36      -0.2715
     41  CB        80.6190   62.3070   55.9650 C.3    36  ASP36       0.1450
     42  CG        81.8450   63.1780   55.6590 C.2    36  ASP36       0.3671
     43  OD1       82.8330   63.2620   56.4420 O.co2  36  ASP36      -0.2456
     44  OD2       81.8080   63.8240   54.6130 O.co2  36  ASP36      -0.2456
     45  N         79.2770   59.5270   56.9440 N.am   37  MET37      -0.1977
     46  CA        77.9650   59.0260   56.8180 C.3    37  MET37       0.1605
     47  C         78.0580   57.4920   56.8830 C.2    37  MET37       0.2287
     48  O         79.0900   56.9330   56.5370 O.2    37  MET37      -0.2864
     49  CB        77.4260   59.4850   55.4690 C.3    37  MET37       0.0413
     50  CG        75.9810   59.7780   55.4880 C.3    37  MET37       0.0598
     51  SD        75.4590   60.3670   53.8560 S.3    37  MET37      -0.1393
     52  CE        73.6520   60.1700   53.9850 C.3    37  MET37       0.0692
     53  N         77.4670   53.4870   56.1910 N.3    39  VAL39      -0.1245
     54  CA        77.4750   52.6130   54.9970 C.3    39  VAL39       0.1561
     55  C         76.9800   51.2280   55.4000 C.2    39  VAL39       0.2260
     56  O         77.3800   50.6440   56.4480 O.2    39  VAL39      -0.2867
     57  CB        78.8940   52.4580   54.3060 C.3    39  VAL39       0.0252
     58  CG1       78.7050   51.8820   52.9130 C.3    39  VAL39       0.0019
     59  CG2       79.7250   53.8180   54.2340 C.3    39  VAL39       0.0019
     60  N         74.6410   58.4790   43.8960 N.3    54  THR54      -0.1203
     61  CA        75.4070   59.4530   44.6820 C.3    54  THR54       0.1994
     62  C         76.9500   59.3830   44.4690 C.2    54  THR54       0.2619
     63  O         77.5220   58.3880   43.9730 O.2    54  THR54      -0.2717
     64  CB        74.9960   59.3700   46.1880 C.3    54  THR54       0.1784
     65  OG1       75.2710   60.5950   46.8340 O.3    54  THR54      -0.2211
     66  CG2       75.6690   58.2120   46.9210 C.3    54  THR54       0.0376
     67  N         77.6150   60.4690   44.8080 N.am   55  SER55      -0.1937
     68  CA        79.0690   60.5840   44.7410 C.3    55  SER55       0.2055
     69  C         79.6270   60.2370   46.1040 C.2    55  SER55       0.2643
     70  O         79.1690   60.7750   47.1070 O.2    55  SER55      -0.2714
     71  CB        79.4660   62.0490   44.4930 C.3    55  SER55       0.2130
     72  OG        78.9410   62.5540   43.3110 O.3    55  SER55      -0.2179
     73  N         80.6450   59.4090   46.1700 N.am   56  VAL56      -0.1963
     74  CA        81.3990   59.3430   47.3960 C.3    56  VAL56       0.1727
     75  C         82.8770   59.4850   47.1110 C.2    56  VAL56       0.2616
     76  O         83.4110   58.7750   46.2660 O.2    56  VAL56      -0.2715
     77  CB        81.1150   58.0410   48.1720 C.3    56  VAL56       0.0290
     78  CG1       82.1600   57.7870   49.2720 C.3    56  VAL56       0.0023
     79  CG2       79.6890   58.0640   48.7350 C.3    56  VAL56       0.0023
     80  N         83.5010   60.4240   47.8370 N.am   57  LEU57      -0.1963
     81  CA        84.9460   60.5990   48.0040 C.3    57  LEU57       0.1728
     82  C         85.5780   59.5120   48.8510 C.2    57  LEU57       0.2617
     83  O         85.3300   59.4630   50.0700 O.2    57  LEU57      -0.2715
     84  CB        85.1830   61.9090   48.7600 C.3    57  LEU57       0.0311
     85  CG        85.6240   63.2130   48.1070 C.3    57  LEU57       0.0022
     86  CD1       87.0970   63.0880   47.4990 C.3    57  LEU57       0.0001
     87  CD2       84.5910   63.5910   47.0570 C.3    57  LEU57       0.0001
     88  N         86.4180   58.6740   48.2510 N.am   58  GLY58      -0.1940
     89  CA        87.1670   57.6440   49.0050 C.3    58  GLY58       0.2014
     90  C         88.6960   57.7890   48.9610 C.2    58  GLY58       0.2638
     91  O         89.2090   58.8140   48.5060 O.2    58  GLY58      -0.2714
     92  N         89.4270   56.7820   49.4470 N.am   59  ALA59      -0.1977
     93  CA        90.8730   56.7890   49.4500 C.3    59  ALA59       0.1597
     94  C         91.4410   57.0690   48.0370 C.2    59  ALA59       0.2287
     95  O         92.2530   58.0050   47.8400 O.2    59  ALA59      -0.2864
     96  CB        91.4020   55.4790   50.0130 C.3    59  ALA59       0.0319
     97  N         86.9210   59.9870   43.8490 N.3    62  GLN62      -0.1245
     98  CA        85.4810   60.0920   43.9220 C.3    62  GLN62       0.1566
     99  C         84.8500   59.0050   43.1190 C.2    62  GLN62       0.2260
    100  O         85.1420   58.8760   41.9510 O.2    62  GLN62      -0.2867
    101  CB        85.0240   61.4210   43.3790 C.3    62  GLN62       0.0367
    102  CG        83.6170   61.7320   43.7900 C.3    62  GLN62       0.0905
    103  CD        83.2380   63.1370   43.4650 C.2    62  GLN62       0.2608
    104  OE1       82.2810   63.3810   42.7410 O.2    62  GLN62      -0.2717
    105  NE2       84.0010   64.0780   43.9730 N.am   62  GLN62      -0.0878
    106  N         78.4410   53.5680   45.4380 N.3    67  PHE67      -0.1241
    107  CA        77.5340   53.8090   46.5460 C.3    67  PHE67       0.1605
    108  C         76.1960   54.3200   46.0850 C.2    67  PHE67       0.2264
    109  O         76.1140   54.9740   45.0290 O.2    67  PHE67      -0.2867
    110  CB        78.1820   54.7190   47.5650 C.3    67  PHE67       0.0534
    111  CG        79.4010   54.1320   48.1390 C.ar   67  PHE67      -0.0203
    112  CD1       80.6360   54.2900   47.4940 C.ar   67  PHE67      -0.0042
    113  CD2       79.3350   53.3500   49.2570 C.ar   67  PHE67      -0.0042
    114  CE1       81.7920   53.7230   47.9800 C.ar   67  PHE67      -0.0003
    115  CE2       80.4980   52.7700   49.7780 C.ar   67  PHE67      -0.0003
    116  CZ        81.7270   52.9550   49.1380 C.ar   67  PHE67      -0.0000
    117  N         72.2440   55.8200   47.8440 N.3    69  LEU69      -0.1245
    118  CA        71.6780   56.5620   48.9360 C.3    69  LEU69       0.1561
    119  C         70.2710   56.0390   49.1920 C.2    69  LEU69       0.2260
    120  O         69.5270   55.8480   48.2240 O.2    69  LEU69      -0.2867
    121  CB        71.5940   58.0170   48.4910 C.3    69  LEU69       0.0270
    122  CG        71.5770   59.0860   49.5540 C.3    69  LEU69       0.0019
    123  CD1       72.7110   58.9030   50.5270 C.3    69  LEU69       0.0001
    124  CD2       71.6570   60.4830   48.8670 C.3    69  LEU69       0.0001
    125  N         74.3270   55.5510   53.2430 N.3    91  LEU91      -0.1245
    126  CA        75.0200   55.1600   51.9960 C.3    91  LEU91       0.1561
    127  C         74.8780   53.6870   51.8030 C.2    91  LEU91       0.2260
    128  O         74.8050   52.9760   52.7770 O.2    91  LEU91      -0.2867
    129  CB        76.5060   55.5220   52.0180 C.3    91  LEU91       0.0270
    130  CG        76.7420   57.0270   51.8870 C.3    91  LEU91       0.0019
    131  CD1       78.1760   57.4050   52.1520 C.3    91  LEU91       0.0001
    132  CD2       76.2930   57.4860   50.5020 C.3    91  LEU91       0.0001
    133  N         81.1040   45.2910   50.6030 N.3    97  ASN97      -0.1225
    134  CA        82.3750   45.2160   51.3350 C.3    97  ASN97       0.1785
    135  C         82.4680   46.0930   52.5900 C.2    97  ASN97       0.2597
    136  O         83.3140   45.8720   53.4660 O.2    97  ASN97      -0.2718
    137  CB        83.4980   45.6420   50.4020 C.3    97  ASN97       0.1169
    138  CG        83.7810   44.6300   49.3310 C.2    97  ASN97       0.2627
    139  OD1       83.8920   43.4140   49.5780 O.2    97  ASN97      -0.2716
    140  ND2       83.9250   45.1250   48.1180 N.am   97  ASN97      -0.0877
    141  N         81.6400   47.1240   52.6440 N.am   98  TRP98      -0.1976
    142  CA        81.6960   48.0820   53.7040 C.3    98  TRP98       0.1640
    143  C         80.4260   48.0180   54.5100 C.2    98  TRP98       0.2290
    144  O         79.3040   48.0810   53.9800 O.2    98  TRP98      -0.2864
    145  CB        81.9180   49.4720   53.1240 C.3    98  TRP98       0.0576
    146  CG        83.2820   49.5920   52.4950 C.ar   98  TRP98       0.0006
    147  CD1       83.6890   49.0610   51.2860 C.ar   98  TRP98       0.0946
    148  CD2       84.4300   50.2550   53.0480 C.ar   98  TRP98       0.0152
    149  NE1       85.0040   49.3610   51.0700 N.ar   98  TRP98      -0.2442
    150  CE2       85.4860   50.0920   52.1300 C.ar   98  TRP98       0.0810
    151  CE3       84.6660   50.9790   54.2260 C.ar   98  TRP98       0.0012
    152  CZ2       86.7640   50.6270   52.3600 C.ar   98  TRP98       0.0191
    153  CZ3       85.9530   51.5090   54.4580 C.ar   98  TRP98       0.0001
    154  CH2       86.9680   51.3260   53.5340 C.ar   98  TRP98       0.0015
    155  N         79.9660   50.3250   57.5830 N.3   100  ILE100     -0.1245
    156  CA        80.6090   51.3500   58.3460 C.3   100  ILE100      0.1561
    157  C         79.5760   52.1760   59.1100 C.2   100  ILE100      0.2260
    158  O         78.6960   52.8080   58.4780 O.2   100  ILE100     -0.2867
    159  CB        81.3770   52.3600   57.4060 C.3   100  ILE100      0.0252
    160  CG1       82.4900   51.7080   56.6250 C.3   100  ILE100      0.0019
    161  CG2       82.0090   53.5220   58.2350 C.3   100  ILE100      0.0019
    162  CD1       83.6440   51.5380   57.6100 C.3   100  ILE100      0.0001
@<TRIPOS>BOND
     1   100    99    2
     2   104   103    2
     3    99    98    1
     4    72    71    1
     5   101   102    1
     6   101    98    1
     7   103   102    1
     8   103   105   am
     9    97    98    1
    10    60    61    1
    11    63    62    2
    12    62    61    1
    13    62    67   am
    14    71    68    1
    15    61    64    1
    16    68    67    1
    17    68    69    1
    18   109   108    2
    19   106   107    1
    20   108   107    1
    21    69    73   am
    22    69    70    2
    23    73    74    1
    24    64    65    1
    25    64    66    1
    26    76    75    2
    27   107   110    1
    28    87    85    1
    29    75    74    1
    30    75    80   am
    31    74    77    1
    32   112   114   ar
    33   112   111   ar
    34    86    85    1
    35   110   111    1
    36    80    81    1
    37    95    94    2
    38   117   118    1
    39   114   116   ar
    40    81    84    1
    41    81    82    1
    42    94    93    1
    43    85    84    1
    44   140   138   am
    45   111   113   ar
    46    77    79    1
    47    77    78    1
    48   120   119    2
    49    88    82   am
    50    88    89    1
    51   121   118    1
    52   121   122    1
    53    91    90    2
    54    82    83    2
    55   124   122    1
    56   118   119    1
    57    90    89    1
    58    90    92   am
    59   116   115   ar
    60   113   115   ar
    61   138   139    2
    62   138   137    1
    63    92    93    1
    64    93    96    1
    65   122   123    1
    66   137   134    1
    67   132   130    1
    68   133   134    1
    69   149   147   ar
    70   149   150   ar
    71   147   146   ar
    72   134   135    1
    73   127   126    1
    74   127   128    2
    75   130   129    1
    76   130   131    1
    77   126   129    1
    78   126   125    1
    79   150   152   ar
    80   150   148   ar
    81   152   154   ar
    82   146   148   ar
    83   146   145    1
    84   135   141   am
    85   135   136    2
    86   141   142    1
    87    58    57    1
    88   148   151   ar
    89   145   142    1
    90   154   153   ar
    91   142   143    1
    92    51    52    1
    93    51    50    1
    94   144   143    2
    95   151   153   ar
    96    59    57    1
    97    57    54    1
    98    44    42   ar
    99    54    55    1
   100    54    53    1
   101    55    56    2
   102    49    50    1
   103    49    46    1
   104    42    41    1
   105    42    43   ar
   106    41    38    1
   107    48    47    2
   108   160   159    1
   109   160   162    1
   110    46    47    1
   111    46    45    1
   112    37    38    1
   113    37    34   am
   114    45    39   am
   115    10     9    1
   116    31    30    2
   117    38    39    1
   118    11     9    1
   119   159   161    1
   120   159   156    1
   121    39    40    2
   122   155   156    1
   123    33    36    1
   124    33    34    1
   125    33    32    1
   126     9     8    2
   127    34    35    2
   128    27    25   ar
   129    30    32   am
   130    30    29    1
   131   156   157    1
   132   158   157    2
   133     8     7    1
   134    19    17    1
   135    29    28    1
   136    25    26   ar
   137    25    24    1
   138     7     6    1
   139    24    21    1
   140    16    17    1
   141    16    13    1
   142    17    18    1
   143    23    22    2
   144    12    13    1
   145     6     5    1
   146    15    14    2
   147    13    14    1
   148    21    22    1
   149    21    20    1
   150     5     2    1
   151     2     1    1
   152     2     3    1
   153     3     4    2
