@<TRIPOS>MOLECULE
tmp/2b7fE00.pdb
 145 138 0 0 0
SMALL
GASTEIGER

@<TRIPOS>ATOM
      1  N        110.7340   39.4140   63.3460 N.3    10  ARG10      -0.1245
      2  CA       112.1360   39.7320   63.1340 C.3    10  ARG10       0.1563
      3  C        112.7880   40.4700   64.3050 C.2    10  ARG10       0.2260
      4  O        112.1430   41.3070   64.9120 O.2    10  ARG10      -0.2867
      5  CB       112.2320   40.5950   61.8910 C.3    10  ARG10       0.0307
      6  CG       112.6580   39.8000   60.6960 C.3    10  ARG10       0.0489
      7  CD       112.1570   40.3530   59.4580 C.3    10  ARG10       0.2205
      8  NE       110.9500   39.6210   59.1420 N.pl3  10  ARG10      -0.0865
      9  CZ       110.7430   39.0170   57.9780 C.cat  10  ARG10       0.5346
     10  NH1      111.6600   39.0850   57.0270 N.pl3  10  ARG10       0.1354
     11  NH2      109.6080   38.3690   57.7570 N.pl3  10  ARG10       0.1354
     12  N        117.1320   45.2790   60.8990 N.3    30  LEU30      -0.1245
     13  CA       117.2340   43.8300   61.1770 C.3    30  LEU30       0.1561
     14  C        118.5850   43.4710   61.8150 C.2    30  LEU30       0.2260
     15  O        119.6200   43.7290   61.2190 O.2    30  LEU30      -0.2867
     16  CB       117.0010   43.0210   59.8720 C.3    30  LEU30       0.0270
     17  CG       117.0460   41.5080   60.0500 C.3    30  LEU30       0.0019
     18  CD1      115.9220   41.0040   60.9310 C.3    30  LEU30       0.0001
     19  CD2      117.0530   40.7690   58.7140 C.3    30  LEU30       0.0001
     20  N        121.2090   40.9210   62.4670 N.3    32  ASP32      -0.1239
     21  CA       121.5090   39.7980   61.5660 C.3    32  ASP32       0.1674
     22  C        122.9360   39.2320   61.6950 C.2    32  ASP32       0.2266
     23  O        123.8320   39.6250   60.9340 O.2    32  ASP32      -0.2867
     24  CB       121.3540   40.2850   60.1550 C.3    32  ASP32       0.1410
     25  CG       121.4570   39.1840   59.1620 C.2    32  ASP32       0.3668
     26  OD1      121.5850   37.9850   59.5200 O.co2  32  ASP32      -0.2456
     27  OD2      121.3610   39.5150   57.9790 O.co2  32  ASP32      -0.2456
     28  N        124.1580   36.8590   60.5340 N.3    34  GLY34      -0.1210
     29  CA       124.6030   36.1950   59.3310 C.3    34  GLY34       0.1956
     30  C        125.0980   37.1990   58.3400 C.2    34  GLY34       0.2612
     31  O        125.3390   36.8730   57.1790 O.2    34  GLY34      -0.2717
     32  N        125.2180   38.4540   58.7400 N.am   35  ALA35      -0.1965
     33  CA       125.6770   39.4540   57.7780 C.3    35  ALA35       0.1728
     34  C        127.1040   39.8340   58.1970 C.2    35  ALA35       0.2616
     35  O        127.3510   40.1510   59.3600 O.2    35  ALA35      -0.2715
     36  CB       124.7170   40.6340   57.7460 C.3    35  ALA35       0.0334
     37  N        128.0530   39.7450   57.2710 N.am   36  ASP36      -0.1957
     38  CA       129.4200   40.2080   57.5000 C.3    36  ASP36       0.1840
     39  C        129.3970   41.7000   57.6880 C.2    36  ASP36       0.2621
     40  O        129.9530   42.2190   58.6390 O.2    36  ASP36      -0.2715
     41  CB       130.3500   39.8980   56.3070 C.3    36  ASP36       0.1450
     42  CG       130.6360   38.3550   56.0790 C.2    36  ASP36       0.3671
     43  OD1      130.3500   37.4450   56.9250 O.co2  36  ASP36      -0.2456
     44  OD2      131.2430   38.0860   55.0040 O.co2  36  ASP36      -0.2456
     45  N        128.7630   42.4040   56.7780 N.am   37  MET37      -0.1977
     46  CA       128.7870   43.8680   56.8550 C.3    37  MET37       0.1605
     47  C        127.3720   44.4570   57.0590 C.2    37  MET37       0.2287
     48  O        126.3910   43.7990   56.7180 O.2    37  MET37      -0.2864
     49  CB       129.3520   44.4860   55.5630 C.3    37  MET37       0.0413
     50  CG       130.8380   44.4030   55.2980 C.3    37  MET37       0.0598
     51  SD       131.2390   45.7180   54.0810 S.3    37  MET37      -0.1393
     52  CE       131.6550   47.1100   55.1440 C.3    37  MET37       0.0692
     53  N        124.2800   47.0380   56.2560 N.3    39  VAL39      -0.1245
     54  CA       123.6370   47.4790   55.0050 C.3    39  VAL39       0.1561
     55  C        122.7190   48.6690   55.3270 C.2    39  VAL39       0.2260
     56  O        121.9880   48.6640   56.3290 O.2    39  VAL39      -0.2867
     57  CB       122.8310   46.3390   54.3680 C.3    39  VAL39       0.0252
     58  CG1      122.0210   46.8230   53.1790 C.3    39  VAL39       0.0019
     59  CG2      123.7560   45.1920   53.9530 C.3    39  VAL39       0.0019
     60  N        130.4910   47.4060   44.3920 N.3    54  THR54      -0.1203
     61  CA       131.1130   46.1650   44.9290 C.3    54  THR54       0.1994
     62  C        130.1650   44.9440   44.7770 C.2    54  THR54       0.2619
     63  O        128.9710   45.0800   44.3480 O.2    54  THR54      -0.2717
     64  CB       131.5870   46.2480   46.4220 C.3    54  THR54       0.1784
     65  OG1      132.2550   45.0220   46.7820 O.3    54  THR54      -0.2211
     66  CG2      130.4220   46.4140   47.3380 C.3    54  THR54       0.0376
     67  N        130.6930   43.7610   45.1140 N.am   55  SER55      -0.1937
     68  CA       129.9120   42.5230   45.0110 C.3    55  SER55       0.2055
     69  C        129.4760   41.9850   46.3850 C.2    55  SER55       0.2643
     70  O        130.2520   42.0500   47.3730 O.2    55  SER55      -0.2714
     71  CB       130.7030   41.4560   44.2540 C.3    55  SER55       0.2130
     72  OG       131.3280   42.0510   43.1150 O.3    55  SER55      -0.2179
     73  N        128.2370   41.4620   46.4350 N.am   56  VAL56      -0.1963
     74  CA       127.6930   40.7920   47.6170 C.3    56  VAL56       0.1727
     75  C        126.9980   39.4860   47.2290 C.2    56  VAL56       0.2616
     76  O        126.1190   39.4730   46.3400 O.2    56  VAL56      -0.2715
     77  CB       126.7740   41.7600   48.4350 C.3    56  VAL56       0.0290
     78  CG1      125.8210   41.0150   49.4120 C.3    56  VAL56       0.0023
     79  CG2      127.6580   42.7480   49.2160 C.3    56  VAL56       0.0023
     80  N        127.4180   38.3990   47.8790 N.am   57  LEU57      -0.1963
     81  CA       126.7600   37.0890   47.7790 C.3    57  LEU57       0.1728
     82  C        125.5110   36.9480   48.7590 C.2    57  LEU57       0.2617
     83  O        125.6320   37.1690   49.9850 O.2    57  LEU57      -0.2715
     84  CB       127.8150   35.9530   47.9750 C.3    57  LEU57       0.0311
     85  CG       127.3790   34.4710   47.7110 C.3    57  LEU57       0.0022
     86  CD1      127.2140   34.0890   46.1590 C.3    57  LEU57       0.0001
     87  CD2      128.2310   33.3680   48.4980 C.3    57  LEU57       0.0001
     88  N        124.3340   36.5790   48.2060 N.am   58  GLY58      -0.1940
     89  CA       123.0690   36.3950   48.9850 C.3    58  GLY58       0.2014
     90  C        122.3310   35.0180   48.9540 C.2    58  GLY58       0.2638
     91  O        122.9530   33.9290   49.1050 O.2    58  GLY58      -0.2714
     92  N        120.9880   35.0880   48.8210 N.am   59  ALA59      -0.1977
     93  CA       120.0540   33.9440   48.6260 C.3    59  ALA59       0.1597
     94  C        120.2990   33.1340   47.3160 C.2    59  ALA59       0.2287
     95  O        120.8560   31.9860   47.3380 O.2    59  ALA59      -0.2864
     96  CB       118.5820   34.4710   48.6770 C.3    59  ALA59       0.0319
     97  N        124.2190   46.7050   45.2700 N.3    67  PHE67      -0.1241
     98  CA       124.7920   47.3170   46.4740 C.3    67  PHE67       0.1605
     99  C        125.9200   48.2750   46.1740 C.2    67  PHE67       0.2264
    100  O        126.7300   48.0480   45.2630 O.2    67  PHE67      -0.2867
    101  CB       125.2850   46.2240   47.4640 C.3    67  PHE67       0.0534
    102  CG       124.1680   45.3930   48.0810 C.ar   67  PHE67      -0.0203
    103  CD1      123.7320   44.2220   47.4730 C.ar   67  PHE67      -0.0042
    104  CD2      123.5430   45.7990   49.2460 C.ar   67  PHE67      -0.0042
    105  CE1      122.6760   43.4420   48.0380 C.ar   67  PHE67      -0.0003
    106  CE2      122.5110   45.0400   49.8240 C.ar   67  PHE67      -0.0003
    107  CZ       122.0840   43.8500   49.2300 C.ar   67  PHE67      -0.0000
    108  N        127.7560   48.7470   53.4280 N.3    91  LEU91      -0.1245
    109  CA       126.9970   48.4580   52.2040 C.3    91  LEU91       0.1561
    110  C        125.7850   49.3570   52.0280 C.2    91  LEU91       0.2260
    111  O        125.1650   49.7670   53.0030 O.2    91  LEU91      -0.2867
    112  CB       126.5250   47.0010   52.2650 C.3    91  LEU91       0.0270
    113  CG       127.6110   45.9390   52.1200 C.3    91  LEU91       0.0019
    114  CD1      127.0510   44.5560   52.4620 C.3    91  LEU91       0.0001
    115  CD2      128.2340   46.0090   50.6850 C.3    91  LEU91       0.0001
    116  N        115.5600   47.8720   49.7540 N.3    97  ASN97      -0.1225
    117  CA       114.7260   46.9540   50.5580 C.3    97  ASN97       0.1785
    118  C        115.2270   46.8010   52.0200 C.2    97  ASN97       0.2597
    119  O        114.4610   46.3310   52.9100 O.2    97  ASN97      -0.2718
    120  CB       114.5940   45.5880   49.8430 C.3    97  ASN97       0.1169
    121  CG       114.3860   45.7470   48.3330 C.2    97  ASN97       0.2627
    122  OD1      115.3480   45.7880   47.5820 O.2    97  ASN97      -0.2716
    123  ND2      113.1400   45.9390   47.9030 N.am   97  ASN97      -0.0877
    124  N        116.4690   47.2500   52.2700 N.am   98  TRP98      -0.1976
    125  CA       117.2230   46.7390   53.3940 C.3    98  TRP98       0.1640
    126  C        117.8760   47.7440   54.3640 C.2    98  TRP98       0.2290
    127  O        118.5240   48.7410   53.9380 O.2    98  TRP98      -0.2864
    128  CB       118.2860   45.7720   52.8630 C.3    98  TRP98       0.0576
    129  CG       117.7300   44.4680   52.2680 C.ar   98  TRP98       0.0006
    130  CD1      118.0740   43.8650   51.0580 C.ar   98  TRP98       0.0946
    131  CD2      116.7480   43.6220   52.8660 C.ar   98  TRP98       0.0152
    132  NE1      117.3620   42.6900   50.9010 N.ar   98  TRP98      -0.2442
    133  CE2      116.5490   42.5230   51.9960 C.ar   98  TRP98       0.0810
    134  CE3      116.0390   43.6720   54.0810 C.ar   98  TRP98       0.0012
    135  CZ2      115.6660   41.4870   52.2970 C.ar   98  TRP98       0.0191
    136  CZ3      115.1730   42.6460   54.3890 C.ar   98  TRP98       0.0001
    137  CH2      114.9840   41.5620   53.4840 C.ar   98  TRP98       0.0015
    138  N        120.0350   46.6670   57.7970 N.3   100  ILE100     -0.1245
    139  CA       120.5280   45.5040   58.4380 C.3   100  ILE100      0.1561
    140  C        121.7690   45.9010   59.1840 C.2   100  ILE100      0.2260
    141  O        122.6870   46.4540   58.6250 O.2   100  ILE100     -0.2867
    142  CB       120.9180   44.4370   57.3740 C.3   100  ILE100      0.0252
    143  CG1      119.7530   44.2150   56.4000 C.3   100  ILE100      0.0019
    144  CG2      121.4560   43.1360   58.0790 C.3   100  ILE100      0.0019
    145  CD1      119.9970   43.2140   55.3720 C.3   100  ILE100      0.0001
@<TRIPOS>BOND
     1    72    71    1
     2    71    68    1
     3    63    62    2
     4    60    61    1
     5    62    61    1
     6    62    67   am
     7    61    64    1
     8    68    67    1
     9    68    69    1
    10   100    99    2
    11    97    98    1
    12    86    85    1
    13    99    98    1
    14    76    75    2
    15    69    73   am
    16    69    70    2
    17    64    65    1
    18    64    66    1
    19    73    74    1
    20    98   101    1
    21    75    74    1
    22    75    80   am
    23    94    95    2
    24    94    93    1
    25   101   102    1
    26   103   105   ar
    27   103   102   ar
    28   122   121    2
    29    74    77    1
    30    85    84    1
    31    85    87    1
    32    81    80    1
    33    81    84    1
    34    81    82    1
    35   123   121   am
    36   105   107   ar
    37   102   104   ar
    38    88    82   am
    39    88    89    1
    40   121   120    1
    41    77    79    1
    42    77    78    1
    43    93    96    1
    44    93    92    1
    45    82    83    2
    46    92    90   am
    47    90    89    1
    48    90    91    2
    49   107   106   ar
    50   104   106   ar
    51   116   117    1
    52   120   117    1
    53   117   118    1
    54   115   113    1
    55   132   130   ar
    56   132   133   ar
    57   130   129   ar
    58   133   135   ar
    59   133   131   ar
    60   118   124   am
    61   118   119    2
    62   110   109    1
    63   110   111    2
    64   113   112    1
    65   113   114    1
    66   109   112    1
    67   109   108    1
    68   129   128    1
    69   129   131   ar
    70   124   125    1
    71   135   137   ar
    72   128   125    1
    73   131   134   ar
    74    58    57    1
    75   125   126    1
    76   137   136   ar
    77   127   126    2
    78    59    57    1
    79   134   136   ar
    80    51    52    1
    81    51    50    1
    82    57    54    1
    83    44    42   ar
    84    54    55    1
    85    54    53    1
    86    50    49    1
    87    55    56    2
    88   145   143    1
    89    49    46    1
    90    42    41    1
    91    42    43   ar
    92    41    38    1
    93   143   142    1
    94    48    47    2
    95    45    46    1
    96    45    39   am
    97    46    47    1
    98    10     9    1
    99    31    30    2
   100    37    38    1
   101    37    34   am
   102   142   144    1
   103   142   139    1
   104    38    39    1
   105    39    40    2
   106    36    33    1
   107    11     9    1
   108    33    34    1
   109    33    32    1
   110   138   139    1
   111     9     8    2
   112    27    25   ar
   113    34    35    2
   114    30    32   am
   115    30    29    1
   116   139   140    1
   117   141   140    2
   118    19    17    1
   119     8     7    1
   120    25    26   ar
   121    25    24    1
   122    29    28    1
   123     7     6    1
   124    16    17    1
   125    16    13    1
   126    17    18    1
   127    24    21    1
   128     6     5    1
   129    12    13    1
   130    23    22    2
   131    13    14    1
   132    15    14    2
   133    21    22    1
   134    21    20    1
   135     5     2    1
   136     2     1    1
   137     2     3    1
   138     3     4    2
