@<TRIPOS>MOLECULE
tmp/2b7nB00.pdb
 111 103 0 0 0
SMALL
GASTEIGER

@<TRIPOS>ATOM
      1  N         44.7200  171.7370    0.8910 N.3   123  ASP123     -0.1225
      2  CA        44.2110  170.6420    0.0880 C.3   123  ASP123      0.1805
      3  C         43.7430  171.2390   -1.2350 C.2   123  ASP123      0.2598
      4  O         44.1260  172.3590   -1.5980 O.2   123  ASP123     -0.2718
      5  CB        43.0600  169.8900    0.7740 C.3   123  ASP123      0.1424
      6  CG        42.0600  170.8140    1.4170 C.2   123  ASP123      0.3668
      7  OD1       41.8810  171.9430    0.9100 O.co2 123  ASP123     -0.2456
      8  OD2       41.4490  170.4030    2.4240 O.co2 123  ASP123     -0.2456
      9  N         42.8780  170.5140   -1.9260 N.am  124  THR124     -0.1939
     10  CA        42.4270  170.9060   -3.2590 C.3   124  THR124      0.2028
     11  C         40.9330  170.5610   -3.4480 C.2   124  THR124      0.2642
     12  O         40.2820  170.1500   -2.4950 O.2   124  THR124     -0.2714
     13  CB        43.3500  170.1200   -4.2410 C.3   124  THR124      0.1808
     14  OG1       44.2920  171.0150   -4.8310 O.3   124  THR124     -0.2208
     15  CG2       42.6000  169.3780   -5.2630 C.3   124  THR124      0.0379
     16  N         40.3750  170.7560   -4.6470 N.am  125  ARG125     -0.1963
     17  CA        38.9820  170.3580   -4.8800 C.3   125  ARG125      0.1729
     18  C         38.9510  168.9160   -5.4120 C.2   125  ARG125      0.2616
     19  O         37.9120  168.4100   -5.8500 O.2   125  ARG125     -0.2715
     20  CB        38.2590  171.3310   -5.8350 C.3   125  ARG125      0.0348
     21  CG        37.4860  172.4210   -5.0740 C.3   125  ARG125      0.0492
     22  CD        36.8970  173.5400   -5.9510 C.3   125  ARG125      0.2205
     23  NE        35.9650  173.0370   -6.9490 N.pl3 125  ARG125     -0.0865
     24  CZ        36.2660  172.8530   -8.2290 C.cat 125  ARG125      0.5346
     25  NH1       37.4840  173.1440   -8.6740 N.pl3 125  ARG125      0.1354
     26  NH2       35.3540  172.3520   -9.0560 N.pl3 125  ARG125      0.1354
     27  N         40.1060  168.2530   -5.3660 N.am  126  LYS126     -0.1977
     28  CA        40.1970  166.8540   -5.7840 C.3   126  LYS126      0.1596
     29  C         39.8160  166.0180   -4.5650 C.2   126  LYS126      0.2287
     30  O         40.6560  165.6730   -3.7470 O.2   126  LYS126     -0.2864
     31  CB        41.6180  166.4950   -6.2320 C.3   126  LYS126      0.0298
     32  CG        42.0300  167.1370   -7.5480 C.3   126  LYS126      0.0038
     33  CD        43.4820  166.8540   -7.9030 C.3   126  LYS126      0.0206
     34  CE        43.8280  167.4710   -9.2630 C.3   126  LYS126      0.1093
     35  NZ        45.2750  167.3390   -9.6310 N.3   126  LYS126     -0.1314
     36  N         41.5980  174.6790    1.4620 N.3   147  HIS147     -0.1226
     37  CA        41.5460  175.6720    0.4130 C.3   147  HIS147      0.1752
     38  C         40.0350  175.9330    0.3250 C.2   147  HIS147      0.2595
     39  O         39.2960  175.5280    1.2260 O.2   147  HIS147     -0.2718
     40  CB        42.0810  175.1180   -0.9060 C.3   147  HIS147      0.0759
     41  CG        42.5150  176.1850   -1.8610 C.ar  147  HIS147      0.0818
     42  ND1       41.6550  177.1500   -2.3400 N.ar  147  HIS147     -0.2268
     43  CD2       43.7240  176.4510   -2.4120 C.ar  147  HIS147      0.1154
     44  CE1       42.3140  177.9620   -3.1470 C.ar  147  HIS147      0.1986
     45  NE2       43.5710  177.5590   -3.2080 N.ar  147  HIS147     -0.2212
     46  N         39.5600  176.5890   -0.7280 N.am  148  ARG148     -0.1980
     47  CA        38.1240  176.8540   -0.8170 C.3   148  ARG148      0.1597
     48  C         37.3610  175.5250   -0.7320 C.2   148  ARG148      0.2287
     49  O         37.9270  174.4590   -1.0010 O.2   148  ARG148     -0.2864
     50  CB        37.7890  177.5660   -2.1230 C.3   148  ARG148      0.0334
     51  CG        38.0460  176.7390   -3.3780 C.3   148  ARG148      0.0492
     52  CD        37.5740  177.4890   -4.6260 C.3   148  ARG148      0.2205
     53  NE        37.8990  176.7720   -5.8570 N.pl3 148  ARG148     -0.0865
     54  CZ        37.4470  177.1170   -7.0590 C.cat 148  ARG148      0.5346
     55  NH1       36.6360  178.1680   -7.1910 N.pl3 148  ARG148      0.1354
     56  NH2       37.8310  176.4370   -8.1350 N.pl3 148  ARG148      0.1354
     57  N         38.2660  180.9600   -9.0830 N.3   156  MET156     -0.1245
     58  CA        39.6100  180.5480   -9.4700 C.3   156  MET156      0.1570
     59  C         39.6750  180.4330  -10.9840 C.2   156  MET156      0.2261
     60  O         39.0220  179.5750  -11.5780 O.2   156  MET156     -0.2867
     61  CB        39.9910  179.2030   -8.8400 C.3   156  MET156      0.0387
     62  CG        40.2290  179.2700   -7.3290 C.3   156  MET156      0.0595
     63  SD        41.0600  177.7880   -6.6680 S.3   156  MET156     -0.1393
     64  CE        42.6740  177.9420   -7.4450 C.3   156  MET156      0.0692
     65  N         41.8920  179.7160  -14.3360 N.3   158  LYS158     -0.1245
     66  CA        43.1000  179.0650  -14.8210 C.3   158  LYS158      0.1561
     67  C         43.1290  179.1090  -16.3450 C.2   158  LYS158      0.2260
     68  O         42.2930  179.7690  -16.9620 O.2   158  LYS158     -0.2867
     69  CB        43.1660  177.6190  -14.3120 C.3   158  LYS158      0.0271
     70  CG        41.8320  176.8990  -14.3280 C.3   158  LYS158      0.0035
     71  CD        41.8450  175.7070  -13.3850 C.3   158  LYS158      0.0206
     72  CE        42.3230  174.4540  -14.0770 C.3   158  LYS158      0.1093
     73  NZ        41.2940  173.9600  -15.0310 N.3   158  LYS158     -0.1314
     74  N         45.6200  181.3310  -11.7400 N.3   188  GLU188     -0.1245
     75  CA        46.6790  180.3370  -11.8530 C.3   188  GLU188      0.1567
     76  C         47.6540  180.8240  -12.9220 C.2   188  GLU188      0.2260
     77  O         47.2530  181.1230  -14.0510 O.2   188  GLU188     -0.2867
     78  CB        46.1040  178.9570  -12.2150 C.3   188  GLU188      0.0388
     79  CG        45.4790  178.2380  -11.0120 C.3   188  GLU188      0.1160
     80  CD        44.9730  176.8250  -11.3170 C.2   188  GLU188      0.3649
     81  OE1       45.7140  176.0310  -11.9430 O.co2 188  GLU188     -0.2457
     82  OE2       43.8320  176.5070  -10.9110 O.co2 188  GLU188     -0.2457
     83  N         48.3940  181.8300   -8.0350 N.3   207  MET207     -0.1245
     84  CA        48.9150  180.4890   -7.8590 C.3   207  MET207      0.1570
     85  C         50.1310  180.2970   -8.7460 C.2   207  MET207      0.2261
     86  O         50.0580  180.4840   -9.9630 O.2   207  MET207     -0.2867
     87  CB        47.8810  179.4230   -8.2150 C.3   207  MET207      0.0387
     88  CG        48.4430  178.0100   -8.0280 C.3   207  MET207      0.0595
     89  SD        47.4110  176.6690   -8.6430 S.3   207  MET207     -0.1393
     90  CE        46.1090  176.6600   -7.3840 C.3   207  MET207      0.0692
     91  N         50.3150  181.2570   -3.5600 N.3   233  GLU233     -0.1245
     92  CA        50.1580  179.8260   -3.3540 C.3   233  GLU233      0.1567
     93  C         51.0210  179.0800   -4.3530 C.2   233  GLU233      0.2260
     94  O         51.0720  179.4350   -5.5290 O.2   233  GLU233     -0.2867
     95  CB        48.6890  179.4210   -3.5490 C.3   233  GLU233      0.0388
     96  CG        48.4600  177.9230   -3.7200 C.3   233  GLU233      0.1160
     97  CD        47.0030  177.5760   -4.0100 C.2   233  GLU233      0.3649
     98  OE1       46.7000  176.3900   -4.2610 O.co2 233  GLU233     -0.2457
     99  OE2       46.1600  178.4920   -3.9870 O.co2 233  GLU233     -0.2457
    100  N         51.9030  175.2790   -6.0580 N.3   235  SER235     -0.1217
    101  CA        51.3060  173.9640   -6.2460 C.3   235  SER235      0.1889
    102  C         51.7630  173.3220   -7.5380 C.2   235  SER235      0.2288
    103  O         52.4450  173.9480   -8.3490 O.2   235  SER235     -0.2866
    104  CB        49.7810  174.0520   -6.2290 C.3   235  SER235      0.2089
    105  OG        49.3250  174.8450   -7.3000 O.3   235  SER235     -0.2183
    106  N         49.6480  174.0460   -1.8160 N.3   255  SER255     -0.1217
    107  CA        48.5470  173.1030   -1.9120 C.3   255  SER255      0.1889
    108  C         49.0260  171.8090   -2.5470 C.2   255  SER255      0.2288
    109  O         49.8700  171.8140   -3.4470 O.2   255  SER255     -0.2866
    110  CB        47.3890  173.6980   -2.7290 C.3   255  SER255      0.2089
    111  OG        47.7260  173.8420   -4.1000 O.3   255  SER255     -0.2183
@<TRIPOS>BOND
     1    68    67    2
     2    67    66    1
     3    73    72    1
     4    66    65    1
     5    66    69    1
     6    70    69    1
     7    70    71    1
     8    72    71    1
     9    77    76    2
    10    76    75    1
    11    78    75    1
    12    78    79    1
    13    81    80   ar
    14    75    74    1
    15    60    59    2
    16    80    79    1
    17    80    82   ar
    18    59    58    1
    19    86    85    2
    20    35    34    1
    21    58    57    1
    22    58    61    1
    23    34    33    1
    24    26    24    1
    25    61    62    1
    26    85    84    1
    27    25    24    1
    28    89    88    1
    29    89    90    1
    30   103   102    2
    31    24    23    2
    32    87    88    1
    33    87    84    1
    34    56    54    1
    35    83    84    1
    36    33    32    1
    37    32    31    1
    38   102   101    1
    39    64    63    1
    40    62    63    1
    41   105   104    1
    42    55    54    1
    43    54    53    2
    44    23    22    1
    45   101   104    1
    46   101   100    1
    47    31    28    1
    48    22    21    1
    49    53    52    1
    50    19    18    2
    51    20    21    1
    52    20    17    1
    53    28    27    1
    54    28    29    1
    55    94    93    2
    56    18    27   am
    57    18    17    1
    58    15    13    1
    59    17    16    1
    60    14    13    1
    61    16    11   am
    62    52    51    1
    63    29    30    2
    64    93    92    1
    65    98    97   ar
    66    13    10    1
    67   111   110    1
    68    97    99   ar
    69    97    96    1
    70    96    95    1
    71    91    92    1
    72    95    92    1
    73    11    10    1
    74    11    12    2
    75   109   108    2
    76    51    50    1
    77    10     9    1
    78    45    44   ar
    79    45    43   ar
    80    44    42   ar
    81   110   107    1
    82   108   107    1
    83    43    41   ar
    84    42    41   ar
    85    50    47    1
    86     9     3   am
    87   107   106    1
    88    41    40    1
    89     4     3    2
    90     3     2    1
    91    49    48    2
    92    40    37    1
    93    47    48    1
    94    47    46    1
    95    46    38   am
    96     2     5    1
    97     2     1    1
    98    38    37    1
    99    38    39    2
   100    37    36    1
   101     5     6    1
   102     7     6   ar
   103     6     8   ar
