@<TRIPOS>MOLECULE
tmp/2b7oB01.pdb
 110 104 0 0 0
SMALL
GASTEIGER

@<TRIPOS>ATOM
      1  N         13.6750   87.9780   -0.1940 N.3    87  CYS87      -0.1235
      2  CA        12.6880   88.2230   -1.2350 C.3    87  CYS87       0.1677
      3  C         12.3190   89.6980   -1.2700 C.2    87  CYS87       0.2270
      4  O         12.3990   90.3440   -2.3240 O.2    87  CYS87      -0.2867
      5  CB        11.4380   87.3670   -1.0260 C.3    87  CYS87       0.0956
      6  SG        10.1390   87.8310   -2.2540 S.3    87  CYS87      -0.0801
      7  N         20.8720   90.3250   -2.3560 N.3   123  ARG123     -0.1245
      8  CA        19.6520   91.1290   -2.5600 C.3   123  ARG123      0.1563
      9  C         19.5080   91.9420   -1.2880 C.2   123  ARG123      0.2260
     10  O         18.9940   91.4610   -0.2700 O.2   123  ARG123     -0.2867
     11  CB        18.3990   90.2440   -2.7440 C.3   123  ARG123      0.0307
     12  CG        18.4960   89.2200   -3.8940 C.3   123  ARG123      0.0489
     13  CD        17.3380   88.2020   -3.8120 C.3   123  ARG123      0.2205
     14  NE        16.0140   88.8310   -3.7370 N.pl3 123  ARG123     -0.0865
     15  CZ        15.1400   88.8800   -4.7480 C.cat 123  ARG123      0.5346
     16  NH1       15.4340   88.3280   -5.9060 N.pl3 123  ARG123      0.1354
     17  NH2       13.9460   89.4570   -4.5880 N.pl3 123  ARG123      0.1354
     18  N         16.3060   96.3310   -1.9960 N.3   127  GLN127     -0.1245
     19  CA        15.2980   95.4170   -2.5290 C.3   127  GLN127      0.1566
     20  C         13.9740   95.6660   -1.8190 C.2   127  GLN127      0.2260
     21  O         13.4960   94.8350   -1.0360 O.2   127  GLN127     -0.2867
     22  CB        15.7770   93.9730   -2.3700 C.3   127  GLN127      0.0367
     23  CG        14.8450   92.8870   -2.9340 C.3   127  GLN127      0.0905
     24  CD        14.3650   93.1480   -4.3810 C.2   127  GLN127      0.2608
     25  OE1       15.0910   93.6740   -5.2180 O.2   127  GLN127     -0.2717
     26  NE2       13.1310   92.7890   -4.6540 N.am  127  GLN127     -0.0878
     27  N          6.8420   93.8230   -7.8040 N.3   131  PRO131     -0.2116
     28  CA         5.7430   93.9430   -8.7430 C.3   131  PRO131      0.1372
     29  C          4.5790   93.0680   -8.2610 C.2   131  PRO131      0.2244
     30  O          4.7750   92.1690   -7.4310 O.2   131  PRO131     -0.2868
     31  CB         6.3390   93.3860  -10.0400 C.3   131  PRO131      0.0268
     32  CG         7.3190   92.3450   -9.5410 C.3   131  PRO131      0.0207
     33  CD         7.8890   92.8960   -8.2800 C.3   131  PRO131      0.0892
     34  N         15.9630   94.4830   -7.8180 N.3   242  GLU242     -0.1245
     35  CA        15.2460   94.7030   -9.0520 C.3   242  GLU242      0.1567
     36  C         15.1080   96.1830   -9.2650 C.2   242  GLU242      0.2260
     37  O         14.6340   96.9000   -8.3720 O.2   242  GLU242     -0.2867
     38  CB        13.8590   94.0880   -9.0080 C.3   242  GLU242      0.0388
     39  CG        13.1270   94.3450  -10.3270 C.3   242  GLU242      0.1160
     40  CD        11.6860   93.8720  -10.3680 C.2   242  GLU242      0.3649
     41  OE1       11.2290   93.1520   -9.4440 O.co2 242  GLU242     -0.2457
     42  OE2       11.0150   94.2300  -11.3560 O.co2 242  GLU242     -0.2457
     43  N         18.4900   94.0280  -11.7670 N.3   273  TRP273     -0.1241
     44  CA        17.8290   93.2240  -12.7860 C.3   273  TRP273      0.1605
     45  C         16.4300   93.7690  -13.1080 C.2   273  TRP273      0.2264
     46  O         15.8560   94.5790  -12.3610 O.2   273  TRP273     -0.2867
     47  CB        17.7810   91.7440  -12.4010 C.3   273  TRP273      0.0550
     48  CG        16.8520   91.4380  -11.2910 C.ar  273  TRP273      0.0003
     49  CD1       15.5380   91.0950  -11.4030 C.ar  273  TRP273      0.0946
     50  CD2       17.1450   91.4520   -9.8790 C.ar  273  TRP273      0.0152
     51  NE1       15.0020   90.8730  -10.1660 N.ar  273  TRP273     -0.2442
     52  CE2       15.9510   91.0930   -9.2060 C.ar  273  TRP273      0.0810
     53  CE3       18.3010   91.7150   -9.1250 C.ar  273  TRP273      0.0012
     54  CZ2       15.8640   90.9900   -7.7860 C.ar  273  TRP273      0.0191
     55  CZ3       18.2310   91.6090   -7.7160 C.ar  273  TRP273      0.0001
     56  CH2       17.0050   91.2610   -7.0620 C.ar  273  TRP273      0.0015
     57  N         12.6300   92.5700  -13.9900 N.3   275  GLY275     -0.1210
     58  CA        11.7570   91.4310  -13.7490 C.3   275  GLY275      0.1956
     59  C         10.8520   91.0670  -14.9130 C.2   275  GLY275      0.2612
     60  O         10.7970   91.7570  -15.9610 O.2   275  GLY275     -0.2717
     61  N         10.1380   89.9840  -14.7210 N.am  276  GLU276     -0.1965
     62  CA         9.3310   89.3910  -15.7580 C.3   276  GLU276      0.1733
     63  C          8.1930   90.3310  -16.2330 C.2   276  GLU276      0.2616
     64  O          7.9050   90.3730  -17.4250 O.2   276  GLU276     -0.2715
     65  CB         8.8070   88.0360  -15.2580 C.3   276  GLU276      0.0429
     66  CG         7.8050   87.3310  -16.1720 C.3   276  GLU276      0.1163
     67  CD         8.4370   86.6580  -17.4060 C.2   276  GLU276      0.3649
     68  OE1        9.6780   86.6800  -17.5900 O.co2 276  GLU276     -0.2457
     69  OE2        7.6610   86.0950  -18.2070 O.co2 276  GLU276     -0.2457
     70  N          7.6050   91.1360  -15.3370 N.am  277  ARG277     -0.1977
     71  CA         6.4780   91.9930  -15.7180 C.3   277  ARG277      0.1597
     72  C          6.8810   93.3590  -16.2390 C.2   277  ARG277      0.2287
     73  O          6.0120   94.1460  -16.6320 O.2   277  ARG277     -0.2864
     74  CB         5.5040   92.1670  -14.5510 C.3   277  ARG277      0.0334
     75  CG         4.9050   90.8450  -14.0040 C.3   277  ARG277      0.0492
     76  CD         4.1960   91.1690  -12.7160 C.3   277  ARG277      0.2205
     77  NE         3.8350   90.0320  -11.8670 N.pl3 277  ARG277     -0.0865
     78  CZ         4.6980   89.3280  -11.1270 C.cat 277  ARG277      0.5346
     79  NH1        6.0190   89.5700  -11.1640 N.pl3 277  ARG277      0.1354
     80  NH2        4.2420   88.3450  -10.3590 N.pl3 277  ARG277      0.1354
     81  N         15.0840   88.6890  -16.1860 N.3   299  LYS299     -0.1245
     82  CA        14.4410   87.4170  -15.8600 C.3   299  LYS299      0.1561
     83  C         13.7180   86.8780  -17.0780 C.2   299  LYS299      0.2260
     84  O         12.9920   87.6290  -17.7380 O.2   299  LYS299     -0.2867
     85  CB        13.4360   87.5600  -14.7060 C.3   299  LYS299      0.0271
     86  CG        14.0000   88.1520  -13.4260 C.3   299  LYS299      0.0035
     87  CD        14.7600   87.1100  -12.6390 C.3   299  LYS299      0.0206
     88  CE        14.9820   87.5110  -11.1800 C.3   299  LYS299      0.1093
     89  NZ        13.8660   86.9260  -10.4070 N.3   299  LYS299     -0.1314
     90  N         13.9330   81.4440  -15.0440 N.3   329  ARG329     -0.1245
     91  CA        12.9590   81.0340  -14.0070 C.3   329  ARG329      0.1563
     92  C         11.7850   80.3570  -14.6860 C.2   329  ARG329      0.2260
     93  O         10.8470   81.0110  -15.1160 O.2   329  ARG329     -0.2867
     94  CB        12.4790   82.1740  -13.0830 C.3   329  ARG329      0.0307
     95  CG        12.7120   83.5750  -13.5840 C.3   329  ARG329      0.0489
     96  CD        11.5410   84.1810  -14.3420 C.3   329  ARG329      0.2205
     97  NE        10.5080   84.6710  -13.4300 N.pl3 329  ARG329     -0.0865
     98  CZ         9.2900   84.1300  -13.3080 C.cat 329  ARG329      0.5346
     99  NH1        8.9230   83.0750  -14.0580 N.pl3 329  ARG329      0.1354
    100  NH2        8.4380   84.6480  -12.4290 N.pl3 329  ARG329      0.1354
    101  N         10.8820   81.5220   -8.6410 N.3   359  HIS359     -0.1241
    102  CA         9.6450   82.1880   -9.1190 C.3   359  HIS359      0.1621
    103  C          8.8630   81.4350  -10.1760 C.2   359  HIS359      0.2264
    104  O          7.8310   81.9330  -10.6540 O.2   359  HIS359     -0.2867
    105  CB         9.9560   83.6050   -9.6400 C.3   359  HIS359      0.0745
    106  CG        10.6530   84.4650   -8.6370 C.ar  359  HIS359      0.0817
    107  ND1       12.0110   84.7070   -8.6840 N.ar  359  HIS359     -0.2268
    108  CD2       10.1870   85.1180   -7.5400 C.ar  359  HIS359      0.1154
    109  CE1       12.3490   85.4810   -7.6660 C.ar  359  HIS359      0.1986
    110  NE2       11.2600   85.7510   -6.9610 N.ar  359  HIS359     -0.2212
@<TRIPOS>BOND
     1    69    67   ar
     2    84    83    2
     3    68    67   ar
     4    64    63    2
     5    67    66    1
     6    83    82    1
     7    73    72    2
     8    72    71    1
     9    63    62    1
    10    63    70   am
    11    81    82    1
    12    66    65    1
    13    60    59    2
    14    82    85    1
    15    62    65    1
    16    62    61    1
    17    71    70    1
    18    71    74    1
    19    93    92    2
    20    90    91    1
    21    59    61   am
    22    59    58    1
    23    85    86    1
    24    92    91    1
    25    74    75    1
    26    96    95    1
    27    96    97    1
    28    99    98    1
    29    91    94    1
    30    75    76    1
    31    57    58    1
    32    95    94    1
    33    97    98    2
    34    86    87    1
    35    98   100    1
    36    45    44    1
    37    45    46    2
    38    44    47    1
    39    44    43    1
    40    76    77    1
    41    87    88    1
    42    47    48    1
    43    77    78    2
    44    49    48   ar
    45    49    51   ar
    46    42    40   ar
    47    48    50   ar
    48    88    89    1
    49    79    78    1
    50    78    80    1
    51   104   103    2
    52    40    39    1
    53    40    41   ar
    54    39    38    1
    55   103   102    1
    56    51    52   ar
    57    31    32    1
    58    31    28    1
    59    50    52   ar
    60    50    53   ar
    61   105   102    1
    62   105   106    1
    63    32    33    1
    64    36    35    1
    65    36    37    2
    66    52    54   ar
    67    53    55   ar
    68   102   101    1
    69    35    38    1
    70    35    34    1
    71    28    29    1
    72    28    27    1
    73   107   106   ar
    74   107   109   ar
    75   106   108   ar
    76    33    27    1
    77    29    30    2
    78    54    56   ar
    79    55    56   ar
    80   109   110   ar
    81   108   110   ar
    82    16    15    1
    83    25    24    2
    84    15    17    1
    85    15    14    2
    86    26    24   am
    87    24    23    1
    88    12    13    1
    89    12    11    1
    90    13    14    1
    91    23    22    1
    92    11     8    1
    93     8     7    1
    94     8     9    1
    95    19    22    1
    96    19    18    1
    97    19    20    1
    98     4     3    2
    99     6     5    1
   100    20    21    2
   101     9    10    2
   102     3     2    1
   103     2     5    1
   104     2     1    1
