@<TRIPOS>MOLECULE
tmp/2b7pC00.pdb
 111 104 0 0 0
SMALL
GASTEIGER

@<TRIPOS>ATOM
      1  N         90.1970   81.9870  110.6010 N.3   123  ASP123     -0.1225
      2  CA        89.2090   81.1530  109.9480 C.3   123  ASP123      0.1805
      3  C         88.9460   81.7910  108.5860 C.2   123  ASP123      0.2598
      4  O         89.7220   82.6410  108.1330 O.2   123  ASP123     -0.2718
      5  CB        87.9200   80.9990  110.7820 C.3   123  ASP123      0.1424
      6  CG        87.3540   82.3170  111.2710 C.2   123  ASP123      0.3668
      7  OD1       87.5210   83.3430  110.5790 O.co2 123  ASP123     -0.2456
      8  OD2       86.7130   82.3080  112.3470 O.co2 123  ASP123     -0.2456
      9  N         87.8640   81.3900  107.9350 N.am  124  THR124     -0.1939
     10  CA        87.5510   81.8890  106.6030 C.3   124  THR124      0.2028
     11  C         86.1110   82.3810  106.4890 C.2   124  THR124      0.2642
     12  O         85.4070   82.5060  107.4900 O.2   124  THR124     -0.2714
     13  CB        87.8390   80.7510  105.5740 C.3   124  THR124      0.1808
     14  OG1       89.2560   80.6460  105.3860 O.3   124  THR124     -0.2208
     15  CG2       87.1720   80.9900  104.2360 C.3   124  THR124      0.0379
     16  N         85.7030   82.7000  105.2660 N.am  125  ARG125     -0.1963
     17  CA        84.3520   83.1360  104.9740 C.3   125  ARG125      0.1729
     18  C         83.6050   81.8720  104.5150 C.2   125  ARG125      0.2616
     19  O         82.4930   81.9370  104.0040 O.2   125  ARG125     -0.2715
     20  CB        84.3850   84.1980  103.8780 C.3   125  ARG125      0.0348
     21  CG        83.3110   85.2590  104.0270 C.3   125  ARG125      0.0492
     22  CD        83.7480   86.6080  103.4720 C.3   125  ARG125      0.2205
     23  NE        84.1790   86.5150  102.0810 N.pl3 125  ARG125     -0.0865
     24  CZ        83.3740   86.2790  101.0490 C.cat 125  ARG125      0.5346
     25  NH1       82.0720   86.1190  101.2330 N.pl3 125  ARG125      0.1354
     26  NH2       83.8820   86.1740   99.8280 N.pl3 125  ARG125      0.1354
     27  N         84.2460   80.7180  104.7030 N.am  126  LYS126     -0.1977
     28  CA        83.6580   79.4250  104.3570 C.3   126  LYS126      0.1596
     29  C         82.9440   78.9030  105.5870 C.2   126  LYS126      0.2287
     30  O         83.5320   78.2130  106.4290 O.2   126  LYS126     -0.2864
     31  CB        84.7240   78.4120  103.9280 C.3   126  LYS126      0.0298
     32  CG        85.2960   78.6660  102.5570 C.3   126  LYS126      0.0038
     33  CD        86.3940   77.6800  102.2350 C.3   126  LYS126      0.0206
     34  CE        87.1210   78.0850  100.9570 C.3   126  LYS126      0.1093
     35  NZ        88.3280   77.2390  100.6590 N.3   126  LYS126     -0.1314
     36  N         88.6230   85.9800  111.0730 N.3   147  HIS147     -0.1226
     37  CA        89.0590   86.7990  109.9480 C.3   147  HIS147      0.1752
     38  C         87.9120   87.8020  109.7990 C.2   147  HIS147      0.2595
     39  O         87.0970   87.9380  110.7120 O.2   147  HIS147     -0.2718
     40  CB        89.1940   85.9410  108.6920 C.3   147  HIS147      0.0759
     41  CG        90.1830   86.4750  107.7120 C.ar  147  HIS147      0.0818
     42  ND1       90.0360   87.7020  107.1050 N.ar  147  HIS147     -0.2268
     43  CD2       91.3570   85.9710  107.2690 C.ar  147  HIS147      0.1154
     44  CE1       91.0810   87.9340  106.3310 C.ar  147  HIS147      0.1986
     45  NE2       91.8970   86.8990  106.4130 N.ar  147  HIS147     -0.2212
     46  N         87.8260   88.4990  108.6750 N.am  148  ARG148     -0.1980
     47  CA        86.7300   89.4490  108.5150 C.3   148  ARG148      0.1597
     48  C         85.4400   88.6420  108.6470 C.2   148  ARG148      0.2287
     49  O         85.4790   87.4120  108.5850 O.2   148  ARG148     -0.2864
     50  CB        86.7930   90.1290  107.1480 C.3   148  ARG148      0.0334
     51  CG        86.6490   89.1850  105.9770 C.3   148  ARG148      0.0492
     52  CD        86.6400   89.9620  104.6730 C.3   148  ARG148      0.2205
     53  NE        86.5820   89.0820  103.5110 N.pl3 148  ARG148     -0.0865
     54  CZ        86.4080   89.5100  102.2630 C.cat 148  ARG148      0.5346
     55  NH1       86.2720   90.8090  102.0170 N.pl3 148  ARG148      0.1354
     56  NH2       86.3720   88.6390  101.2600 N.pl3 148  ARG148      0.1354
     57  N         88.8360   92.3930  100.0450 N.3   156  MET156     -0.1245
     58  CA        89.8320   91.3580   99.7670 C.3   156  MET156      0.1570
     59  C         89.8960   91.0450   98.2640 C.2   156  MET156      0.2261
     60  O         89.0300   90.3590   97.7280 O.2   156  MET156     -0.2867
     61  CB        89.5340   90.0840  100.5660 C.3   156  MET156      0.0387
     62  CG        90.7360   89.1650  100.6550 C.3   156  MET156      0.0595
     63  SD        90.5110   87.7410  101.7140 S.3   156  MET156     -0.1393
     64  CE        89.9720   88.5220  103.2240 C.3   156  MET156      0.0692
     65  N         91.6490   89.5420   94.6860 N.3   158  LYS158     -0.1245
     66  CA        92.4080   88.4100   94.1640 C.3   158  LYS158      0.1561
     67  C         92.4710   88.5330   92.6440 C.2   158  LYS158      0.2260
     68  O         92.1160   89.5750   92.0960 O.2   158  LYS158     -0.2867
     69  CB        91.7590   87.0900   94.5800 C.3   158  LYS158      0.0271
     70  CG        90.3440   86.9050   94.0870 C.3   158  LYS158      0.0035
     71  CD        89.6960   85.6770   94.7150 C.3   158  LYS158      0.0206
     72  CE        89.5130   85.8300   96.2200 C.3   158  LYS158      0.1093
     73  NZ        88.8840   84.6190   96.8300 N.3   158  LYS158     -0.1314
     74  N         95.2700   88.7790   97.6960 N.3   188  GLU188     -0.1245
     75  CA        95.7080   87.3920   97.6480 C.3   188  GLU188      0.1567
     76  C         96.7010   87.2300   96.5050 C.2   188  GLU188      0.2260
     77  O         96.4390   87.6540   95.3790 O.2   188  GLU188     -0.2867
     78  CB        94.5040   86.4650   97.4690 C.3   188  GLU188      0.0388
     79  CG        93.6360   86.3890   98.7160 C.3   188  GLU188      0.1160
     80  CD        92.3780   85.5690   98.5220 C.2   188  GLU188      0.3649
     81  OE1       92.4870   84.3990   98.1000 O.co2 188  GLU188     -0.2457
     82  OE2       91.2790   86.0940   98.8000 O.co2 188  GLU188     -0.2457
     83  N         98.0870   87.9550  101.2580 N.3   207  MET207     -0.1245
     84  CA        97.8760   86.5480  101.5110 C.3   207  MET207      0.1570
     85  C         98.7520   85.7160  100.5930 C.2   207  MET207      0.2261
     86  O         98.7230   85.8740   99.3690 O.2   207  MET207     -0.2867
     87  CB        96.4210   86.1700  101.2820 C.3   207  MET207      0.0387
     88  CG        96.1680   84.7150  101.5650 C.3   207  MET207      0.0595
     89  SD        94.5360   84.2360  101.1070 S.3   207  MET207     -0.1393
     90  CE        93.6160   84.8720  102.4950 C.3   207  MET207      0.0692
     91  N         99.6550   86.7450  105.4730 N.3   233  GLU233     -0.1253
     92  CA        98.8680   85.4520  105.9230 C.3   233  GLU233      0.1468
     93  C         98.9900   84.3430  104.8510 C.3   233  GLU233      0.2054
     94  O         99.1180   84.8210  103.7100 O.3   233  GLU233     -0.2184
     95  CB        97.3140   85.7320  105.7530 C.2   233  GLU233      0.0019
     96  CG        96.3060   84.5220  105.7080 C.2   233  GLU233      0.0831
     97  CD        94.8940   84.8620  105.2780 C.2   233  GLU233      0.3877
     98  OE1       94.0310   83.9630  105.3310 O.co2 233  GLU233     -0.2406
     99  OE2       94.6450   86.0230  104.8900 O.co2 233  GLU233     -0.2406
    100  N         98.1180   80.6720  104.5010 N.3   235  SER235     -0.1217
    101  CA        97.5310   79.3450  104.3600 C.3   235  SER235      0.1889
    102  C         96.6450   79.2640  103.1210 C.2   235  SER235      0.2288
    103  O         95.8910   80.2270  102.8630 O.2   235  SER235     -0.2866
    104  CB        96.7320   78.9770  105.6120 C.3   235  SER235      0.2089
    105  OG        95.6350   79.8540  105.7940 O.3   235  SER235     -0.2183
    106  N         95.4580   81.1920  107.9560 N.3   255  SER255     -0.1273
    107  CA        94.0280   80.9280  107.9200 C.3   255  SER255      0.1575
    108  C         93.7880   79.5410  107.3790 C.3   255  SER255      0.2036
    109  O         94.4910   79.0850  106.4830 O.3   255  SER255     -0.2187
    110  CB        93.3030   81.9610  107.0580 C.3   255  SER255      0.2036
    111  OG        93.6690   81.8420  105.6990 O.3   255  SER255     -0.2187
@<TRIPOS>BOND
     1    68    67    2
     2    67    66    1
     3    70    69    1
     4    70    71    1
     5    66    69    1
     6    66    65    1
     7    71    72    1
     8    77    76    2
     9    72    73    1
    10    76    75    1
    11    78    75    1
    12    78    79    1
    13    75    74    1
    14    60    59    2
    15    81    80   ar
    16    59    58    1
    17    80    79    1
    18    80    82   ar
    19    86    85    2
    20    58    57    1
    21    58    61    1
    22    26    24    1
    23    61    62    1
    24    85    84    1
    25    62    63    1
    26    35    34    1
    27    34    33    1
    28    24    25    1
    29    24    23    2
    30    89    88    1
    31    89    90    1
    32    83    84    1
    33    56    54    1
    34    87    84    1
    35    87    88    1
    36    63    64    1
    37    55    54    1
    38    23    22    1
    39    33    32    1
    40    54    53    2
    41    32    31    1
    42   103   102    2
    43   102   101    1
    44    22    21    1
    45    53    52    1
    46    94    93    1
    47    20    21    1
    48    20    17    1
    49    31    28    1
    50    19    18    2
    51    15    13    1
    52    28    27    1
    53    28    29    1
    54   101   100    1
    55   101   104    1
    56    18    27   am
    57    18    17    1
    58    52    51    1
    59    93    92    1
    60    99    97   ar
    61    17    16    1
    62    16    11   am
    63    97    98   ar
    64    97    96    1
    65    14    13    1
    66    91    92    1
    67    13    10    1
    68    29    30    2
    69   104   105    1
    70   111   110    1
    71    96    95    2
    72    95    92    1
    73   105   109    1
    74    51    50    1
    75    44    45   ar
    76    44    42   ar
    77    45    43   ar
    78   109   108    1
    79    11    10    1
    80    11    12    2
    81    10     9    1
    82   110   107    1
    83    42    41   ar
    84    50    47    1
    85    43    41   ar
    86   108   107    1
    87    41    40    1
    88   107   106    1
    89     9     3   am
    90     4     3    2
    91    47    48    1
    92    47    46    1
    93    49    48    2
    94     3     2    1
    95    46    38   am
    96    40    37    1
    97    38    37    1
    98    38    39    2
    99    37    36    1
   100     2     1    1
   101     2     5    1
   102     7     6   ar
   103     5     6    1
   104     6     8   ar
