@<TRIPOS>MOLECULE
tmp/2b7qA00.pdb
 157 148 0 0 0
SMALL
GASTEIGER

@<TRIPOS>ATOM
      1  N        165.0660 -142.3850 -108.9550 N.3   123  ASP123     -0.1225
      2  CA       164.1230 -143.2270 -109.6710 C.3   123  ASP123      0.1805
      3  C        163.7830 -142.6360 -111.0400 C.2   123  ASP123      0.2598
      4  O        164.5850 -141.9080 -111.6290 O.2   123  ASP123     -0.2718
      5  CB       162.8410 -143.4910 -108.8600 C.3   123  ASP123      0.1424
      6  CG       162.4390 -142.3370 -107.9740 C.2   123  ASP123      0.3668
      7  OD1      162.7590 -141.1750 -108.2980 O.co2 123  ASP123     -0.2456
      8  OD2      161.7740 -142.5980 -106.9490 O.co2 123  ASP123     -0.2456
      9  N        162.5920 -142.9420 -111.5430 N.am  124  THR124     -0.1939
     10  CA       162.1880 -142.4820 -112.8660 C.3   124  THR124      0.2028
     11  C        160.6870 -142.3520 -113.0030 C.2   124  THR124      0.2642
     12  O        159.9420 -142.8480 -112.1690 O.2   124  THR124     -0.2714
     13  CB       162.6790 -143.4850 -113.9240 C.3   124  THR124      0.1808
     14  OG1      164.0920 -143.3450 -114.0660 O.3   124  THR124     -0.2208
     15  CG2      161.9980 -143.2720 -115.2680 C.3   124  THR124      0.0379
     16  N        160.2460 -141.6840 -114.0630 N.am  125  ARG125     -0.1963
     17  CA       158.8220 -141.5450 -114.3250 C.3   125  ARG125      0.1729
     18  C        158.2270 -142.9180 -114.6860 C.2   125  ARG125      0.2616
     19  O        157.0780 -143.0300 -115.1270 O.2   125  ARG125     -0.2715
     20  CB       158.5930 -140.5420 -115.4540 C.3   125  ARG125      0.0348
     21  CG       158.3500 -139.1320 -114.9610 C.3   125  ARG125      0.0492
     22  CD       158.4560 -138.1500 -116.0890 C.3   125  ARG125      0.2205
     23  NE       157.5480 -138.4680 -117.1830 N.pl3 125  ARG125     -0.0865
     24  CZ       157.8760 -138.3400 -118.4620 C.cat 125  ARG125      0.5346
     25  NH1      159.0880 -137.9100 -118.7830 N.pl3 125  ARG125      0.1354
     26  NH2      156.9980 -138.6200 -119.4160 N.pl3 125  ARG125      0.1354
     27  N        159.0270 -143.9630 -114.5110 N.am  126  LYS126     -0.1977
     28  CA       158.5500 -145.3010 -114.7790 C.3   126  LYS126      0.1596
     29  C        157.7930 -145.6900 -113.5220 C.2   126  LYS126      0.2287
     30  O        158.3660 -146.2300 -112.5790 O.2   126  LYS126     -0.2864
     31  CB       159.7170 -146.2680 -115.0200 C.3   126  LYS126      0.0298
     32  CG       160.5480 -145.9680 -116.2690 C.3   126  LYS126      0.0038
     33  CD       161.6400 -147.0260 -116.5400 C.3   126  LYS126      0.0206
     34  CE       161.0510 -148.4000 -116.8990 C.3   126  LYS126      0.1093
     35  NZ       162.0230 -149.3660 -117.5280 N.3   126  LYS126     -0.1314
     36  N        163.8110 -138.4800 -108.1850 N.3   147  HIS147     -0.1226
     37  CA       164.2550 -137.6530 -109.3090 C.3   147  HIS147      0.1752
     38  C        163.0940 -136.6770 -109.5640 C.2   147  HIS147      0.2595
     39  O        162.3980 -136.3020 -108.6210 O.2   147  HIS147     -0.2718
     40  CB       164.5210 -138.5360 -110.5310 C.3   147  HIS147      0.0759
     41  CG       165.3670 -137.8900 -111.5890 C.ar  147  HIS147      0.0818
     42  ND1      165.0350 -136.6920 -112.1870 N.ar  147  HIS147     -0.2268
     43  CD2      166.4930 -138.3160 -112.2100 C.ar  147  HIS147      0.1154
     44  CE1      165.9150 -136.4100 -113.1320 C.ar  147  HIS147      0.1986
     45  NE2      166.8100 -137.3800 -113.1670 N.ar  147  HIS147     -0.2212
     46  N        162.8600 -136.2540 -110.8030 N.am  148  ARG148     -0.1980
     47  CA       161.7420 -135.3400 -111.0310 C.3   148  ARG148      0.1597
     48  C        160.4380 -136.1010 -110.8590 C.2   148  ARG148      0.2287
     49  O        160.3770 -137.2920 -111.1560 O.2   148  ARG148     -0.2864
     50  CB       161.8110 -134.6970 -112.4260 C.3   148  ARG148      0.0334
     51  CG       161.6720 -135.6030 -113.6400 C.3   148  ARG148      0.0492
     52  CD       161.5230 -134.6990 -114.8620 C.3   148  ARG148      0.2205
     53  NE       161.4810 -135.3910 -116.1510 N.pl3 148  ARG148     -0.0865
     54  CZ       161.1500 -134.8030 -117.3070 C.cat 148  ARG148      0.5346
     55  NH1      160.8290 -133.5130 -117.3330 N.pl3 148  ARG148      0.1354
     56  NH2      161.1410 -135.4970 -118.4440 N.pl3 148  ARG148      0.1354
     57  N        163.5720 -131.7490 -118.9510 N.3   156  MET156     -0.1245
     58  CA       164.6250 -132.7140 -119.2170 C.3   156  MET156      0.1570
     59  C        164.3530 -133.3670 -120.5600 C.2   156  MET156      0.2261
     60  O        163.2750 -133.9220 -120.7870 O.2   156  MET156     -0.2867
     61  CB       164.6750 -133.7630 -118.1080 C.3   156  MET156      0.0387
     62  CG       165.7840 -134.7680 -118.2790 C.3   156  MET156      0.0595
     63  SD       165.2440 -136.1730 -119.2160 S.3   156  MET156     -0.1393
     64  CE       165.0910 -137.3800 -117.8920 C.3   156  MET156      0.0692
     65  N        166.0800 -135.3580 -124.4410 N.3   158  LYS158     -0.1245
     66  CA       166.9850 -136.3300 -125.0410 C.3   158  LYS158      0.1561
     67  C        166.9500 -136.1890 -126.5610 C.2   158  LYS158      0.2260
     68  O        166.2460 -135.3320 -127.0930 O.2   158  LYS158     -0.2867
     69  CB       166.5860 -137.7520 -124.6290 C.3   158  LYS158      0.0271
     70  CG       165.1560 -138.1300 -124.9830 C.3   158  LYS158      0.0035
     71  CD       164.7180 -139.3800 -124.2380 C.3   158  LYS158      0.0206
     72  CE       163.2580 -139.7100 -124.5050 C.3   158  LYS158      0.1093
     73  NZ       162.7700 -140.7910 -123.6020 N.3   158  LYS158     -0.1314
     74  N        169.9460 -136.0200 -121.7800 N.3   188  GLU188     -0.1245
     75  CA       170.3690 -137.4080 -121.8850 C.3   188  GLU188      0.1567
     76  C        171.4720 -137.5360 -122.9220 C.2   188  GLU188      0.2260
     77  O        171.4240 -136.8910 -123.9680 O.2   188  GLU188     -0.2867
     78  CB       169.2020 -138.3010 -122.2880 C.3   188  GLU188      0.0388
     79  CG       168.4010 -138.8330 -121.1220 C.3   188  GLU188      0.1160
     80  CD       167.4550 -139.9490 -121.5350 C.2   188  GLU188      0.3649
     81  OE1      167.9140 -140.8810 -122.2420 O.co2 188  GLU188     -0.2457
     82  OE2      166.2610 -139.8980 -121.1450 O.co2 188  GLU188     -0.2457
     83  N        172.9790 -136.6290 -118.1450 N.3   207  MET207     -0.1245
     84  CA       172.7870 -138.0340 -117.8450 C.3   207  MET207      0.1570
     85  C        173.7360 -138.8710 -118.7010 C.2   207  MET207      0.2261
     86  O        174.4130 -138.3520 -119.5980 O.2   207  MET207     -0.2867
     87  CB       171.3380 -138.4460 -118.1180 C.3   207  MET207      0.0387
     88  CG       170.9480 -139.7530 -117.4360 C.3   207  MET207      0.0595
     89  SD       169.2760 -140.3170 -117.7830 S.3   207  MET207     -0.1393
     90  CE       168.3230 -139.1790 -116.7590 C.3   207  MET207      0.0692
     91  N        173.2770 -142.4850 -120.6080 N.3   209  ASP209     -0.1239
     92  CA       172.4850 -143.6540 -120.9970 C.3   209  ASP209      0.1674
     93  C        173.2860 -144.8450 -121.5430 C.2   209  ASP209      0.2266
     94  O        173.9710 -144.7410 -122.5670 O.2   209  ASP209     -0.2867
     95  CB       171.4190 -143.2550 -122.0340 C.3   209  ASP209      0.1410
     96  CG       170.0960 -142.8450 -121.4010 C.2   209  ASP209      0.3668
     97  OD1      170.0770 -141.8710 -120.6220 O.co2 209  ASP209     -0.2456
     98  OD2      169.0690 -143.4980 -121.6900 O.co2 209  ASP209     -0.2456
     99  N        174.6250 -137.7120 -113.9520 N.3   233  GLU233     -0.1245
    100  CA       173.7350 -138.8300 -113.6770 C.3   233  GLU233      0.1567
    101  C        174.0310 -140.1250 -114.4340 C.2   233  GLU233      0.2260
    102  O        174.0580 -140.1650 -115.6650 O.2   233  GLU233     -0.2867
    103  CB       172.2920 -138.3850 -113.9510 C.3   233  GLU233      0.0388
    104  CG       171.2130 -139.4030 -113.6070 C.3   233  GLU233      0.1160
    105  CD       169.8280 -138.8160 -113.7220 C.2   233  GLU233      0.3649
    106  OE1      168.8430 -139.5610 -113.5590 O.co2 233  GLU233     -0.2457
    107  OE2      169.7280 -137.6010 -113.9730 O.co2 233  GLU233     -0.2457
    108  N        172.6850 -143.3790 -115.5990 N.3   235  SER235     -0.1202
    109  CA       171.3820 -144.0110 -115.8230 C.3   235  SER235      0.2020
    110  C        171.3580 -144.8550 -117.0900 C.2   235  SER235      0.2619
    111  O        171.3980 -144.3250 -118.1970 O.2   235  SER235     -0.2717
    112  CB       170.2890 -142.9450 -115.9140 C.3   235  SER235      0.2103
    113  OG       169.0400 -143.5330 -116.2130 O.3   235  SER235     -0.2182
    114  N        171.2830 -146.1690 -116.9250 N.am  236  GLY236     -0.1942
    115  CA       171.2540 -147.0380 -118.0850 C.3   236  GLY236      0.2014
    116  C        170.3830 -148.2540 -117.8600 C.2   236  GLY236      0.2638
    117  O        169.3280 -148.4180 -118.4790 O.2   236  GLY236     -0.2714
    118  N        170.8410 -149.1180 -116.9680 N.am  237  ASN237     -0.1972
    119  CA       170.1160 -150.3260 -116.6250 C.3   237  ASN237      0.1688
    120  C        170.4460 -150.5230 -115.1600 C.2   237  ASN237      0.2292
    121  O        169.5900 -150.8710 -114.3510 O.2   237  ASN237     -0.2864
    122  CB       170.6250 -151.4970 -117.4560 C.3   237  ASN237      0.1181
    123  CG       169.6060 -152.6030 -117.5780 C.2   237  ASN237      0.2629
    124  OD1      169.1760 -153.1820 -116.5790 O.2   237  ASN237     -0.2716
    125  ND2      169.2070 -152.9040 -118.8110 N.am  237  ASN237     -0.0877
    126  N        170.5240 -143.1730 -111.3890 N.3   255  SER255     -0.1202
    127  CA       169.0850 -143.4330 -111.3850 C.3   255  SER255      0.2020
    128  C        168.7010 -144.8250 -111.8750 C.2   255  SER255      0.2619
    129  O        168.8810 -145.1710 -113.0380 O.2   255  SER255     -0.2717
    130  CB       168.3700 -142.3690 -112.2120 C.3   255  SER255      0.2103
    131  OG       169.1800 -141.9580 -113.2920 O.3   255  SER255     -0.2182
    132  N        168.1670 -145.6220 -110.9620 N.am  256  VAL256     -0.1965
    133  CA       167.7600 -146.9810 -111.2760 C.3   256  VAL256      0.1727
    134  C        166.2440 -147.1250 -111.1580 C.2   256  VAL256      0.2617
    135  O        165.7180 -147.5270 -110.1130 O.2   256  VAL256     -0.2715
    136  CB       168.4700 -148.0110 -110.3380 C.3   256  VAL256      0.0290
    137  CG1      168.0970 -147.7720 -108.8880 C.3   256  VAL256      0.0023
    138  CG2      168.1090 -149.4200 -110.7440 C.3   256  VAL256      0.0023
    139  N        165.5500 -146.7870 -112.2410 N.am  257  GLY257     -0.1940
    140  CA       164.1040 -146.8820 -112.2550 C.3   257  GLY257      0.2014
    141  C        163.6150 -148.2560 -111.8380 C.2   257  GLY257      0.2638
    142  O        162.5260 -148.4030 -111.2760 O.2   257  GLY257     -0.2714
    143  N        164.4210 -149.2730 -112.1130 N.am  258  ALA258     -0.1977
    144  CA       164.0510 -150.6280 -111.7500 C.3   258  ALA258      0.1597
    145  C        163.5470 -150.7120 -110.3050 C.2   258  ALA258      0.2287
    146  O        162.8390 -151.6480 -109.9400 O.2   258  ALA258     -0.2864
    147  CB       165.2370 -151.5530 -111.9620 C.3   258  ALA258      0.0319
    148  N        159.4980 -150.4640 -110.9120 N.3   261  HIS261     -0.1241
    149  CA       158.9230 -151.4830 -111.7770 C.3   261  HIS261      0.1621
    150  C        159.6590 -152.8010 -111.6750 C.2   261  HIS261      0.2264
    151  O        160.1420 -153.3240 -112.6730 O.2   261  HIS261     -0.2867
    152  CB       158.9180 -151.0150 -113.2340 C.3   261  HIS261      0.0745
    153  CG       160.2780 -150.8870 -113.8420 C.ar  261  HIS261      0.0817
    154  ND1      161.1960 -149.9510 -113.4240 N.ar  261  HIS261     -0.2268
    155  CD2      160.8630 -151.5610 -114.8600 C.ar  261  HIS261      0.1154
    156  CE1      162.2870 -150.0490 -114.1620 C.ar  261  HIS261      0.1986
    157  NE2      162.1110 -151.0190 -115.0410 N.ar  261  HIS261     -0.2212
@<TRIPOS>BOND
     1    68    67    2
     2    67    66    1
     3    66    69    1
     4    66    65    1
     5    70    69    1
     6    70    71    1
     7    72    71    1
     8    72    73    1
     9    77    76    2
    10    76    75    1
    11    94    93    2
    12    78    75    1
    13    78    79    1
    14    81    80   ar
    15    95    96    1
    16    95    92    1
    17    75    74    1
    18    98    96   ar
    19    93    92    1
    20    80    82   ar
    21    80    79    1
    22    96    97   ar
    23    92    91    1
    24    60    59    2
    25    59    58    1
    26    86    85    2
    27    26    24    1
    28    58    57    1
    29    58    61    1
    30    63    62    1
    31    63    64    1
    32   125   123   am
    33    25    24    1
    34    85    84    1
    35   117   116    2
    36    24    23    2
    37    56    54    1
    38    62    61    1
    39   111   110    2
    40    83    84    1
    41    87    84    1
    42    87    88    1
    43   115   116    1
    44   115   114    1
    45   116   118   am
    46    89    88    1
    47    89    90    1
    48   123   122    1
    49   123   124    2
    50    35    34    1
    51   122   119    1
    52    55    54    1
    53    54    53    2
    54    23    22    1
    55   110   114   am
    56   110   109    1
    57   118   119    1
    58    34    33    1
    59   119   120    1
    60    33    32    1
    61    32    31    1
    62   113   112    1
    63    53    52    1
    64    22    21    1
    65   112   109    1
    66   109   108    1
    67   102   101    2
    68    20    21    1
    69    20    17    1
    70    15    13    1
    71   120   121    2
    72    19    18    2
    73   157   155   ar
    74   157   156   ar
    75    31    28    1
    76    52    51    1
    77   155   153   ar
    78    28    27    1
    79    28    29    1
    80    18    27   am
    81    18    17    1
    82   101   100    1
    83    17    16    1
    84   156   154   ar
    85    14    13    1
    86    16    11   am
    87   107   105   ar
    88    99   100    1
    89   103   100    1
    90   103   104    1
    91    13    10    1
    92   153   154   ar
    93   153   152    1
    94   105   104    1
    95   105   106   ar
    96    51    50    1
    97    29    30    2
    98   131   130    1
    99   152   149    1
   100    45    44   ar
   101    45    43   ar
   102    44    42   ar
   103   129   128    2
   104    11    10    1
   105    11    12    2
   106    10     9    1
   107   151   150    2
   108    50    47    1
   109   140   139    1
   110   140   141    1
   111   139   134   am
   112   130   127    1
   113    43    41   ar
   114    42    41   ar
   115   143   141   am
   116   143   144    1
   117   147   144    1
   118   128   127    1
   119   128   132   am
   120   141   142    2
   121   149   150    1
   122   149   148    1
   123   144   145    1
   124     4     3    2
   125    41    40    1
   126     9     3   am
   127   126   127    1
   128   133   134    1
   129   133   132    1
   130   133   136    1
   131   134   135    2
   132    49    48    2
   133     3     2    1
   134    47    48    1
   135    47    46    1
   136    46    38   am
   137   138   136    1
   138    40    37    1
   139   136   137    1
   140   145   146    2
   141     2     1    1
   142     2     5    1
   143    38    37    1
   144    38    39    2
   145    37    36    1
   146     5     6    1
   147     7     6   ar
   148     6     8   ar
