@<TRIPOS>MOLECULE
tmp/2b81C01.pdb
 76 76 0 0 0
SMALL
GASTEIGER

@<TRIPOS>ATOM
      1  N         65.8050   46.3190   18.5280 N.3    32  PHE32      -0.1227
      2  CA        64.8460   47.0770   17.7080 C.3    32  PHE32       0.1736
      3  C         63.7130   47.7470   18.4910 C.2    32  PHE32       0.2595
      4  O         62.8880   48.4460   17.8960 O.2    32  PHE32      -0.2718
      5  CB        64.1950   46.1910   16.6510 C.3    32  PHE32       0.0547
      6  CG        65.1020   45.8020   15.5170 C.ar   32  PHE32      -0.0202
      7  CD1       65.8460   44.6070   15.5750 C.ar   32  PHE32      -0.0042
      8  CD2       65.1840   46.5920   14.3640 C.ar   32  PHE32      -0.0042
      9  CE1       66.6750   44.2260   14.5080 C.ar   32  PHE32      -0.0003
     10  CE2       66.0020   46.2190   13.2870 C.ar   32  PHE32      -0.0003
     11  CZ        66.7490   45.0400   13.3580 C.ar   32  PHE32      -0.0000
     12  N         63.6570   47.5350   19.8020 N.am   33  HIS33      -0.1961
     13  CA        62.5750   48.0730   20.6140 C.3    33  HIS33       0.1787
     14  C         63.0820   49.0700   21.6520 C.2    33  HIS33       0.2620
     15  O         64.2570   49.0530   21.9940 O.2    33  HIS33      -0.2715
     16  CB        61.7960   46.9260   21.2550 C.3    33  HIS33       0.0785
     17  CG        61.2020   45.9860   20.2490 C.ar   33  HIS33       0.0821
     18  ND1       59.9960   46.2330   19.6180 N.ar   33  HIS33      -0.2267
     19  CD2       61.6770   44.8340   19.7160 C.ar   33  HIS33       0.1154
     20  CE1       59.7450   45.2590   18.7580 C.ar   33  HIS33       0.1986
     21  NE2       60.7490   44.3980   18.7980 N.ar   33  HIS33      -0.2212
     22  N         62.1940   49.9540   22.1110 N.am   34  ALA34      -0.1977
     23  CA        62.4950   50.9500   23.1330 C.3    34  ALA34       0.1597
     24  C         63.0420   50.2610   24.3640 C.2    34  ALA34       0.2287
     25  O         62.5430   49.2040   24.7220 O.2    34  ALA34      -0.2864
     26  CB        61.2310   51.7080   23.5010 C.3    34  ALA34       0.0319
     27  N         61.0800   61.5010   19.6960 N.3    62  GLN62      -0.1231
     28  CA        60.9940   60.2250   19.0030 C.3    62  GLN62       0.1698
     29  C         60.7420   60.5080   17.5250 C.2    62  GLN62       0.2592
     30  O         59.7530   61.1320   17.1600 O.2    62  GLN62      -0.2718
     31  CB        59.8850   59.3680   19.5980 C.3    62  GLN62       0.0381
     32  CG        59.6550   58.0670   18.8820 C.3    62  GLN62       0.0905
     33  CD        58.3610   57.3650   19.2970 C.2    62  GLN62       0.2608
     34  OE1       58.0160   56.3130   18.7450 O.2    62  GLN62      -0.2717
     35  NE2       57.6290   57.9520   20.2460 N.am   62  GLN62      -0.0878
     36  N         61.6820   60.0890   16.6900 N.am   63  ASP63      -0.1960
     37  CA        61.5630   60.2220   15.2510 C.3    63  ASP63       0.1825
     38  C         61.6460   58.8260   14.6480 C.2    63  ASP63       0.2464
     39  O         62.7300   58.2490   14.5590 O.2    63  ASP63      -0.2730
     40  CB        62.6780   61.1040   14.7170 C.3    63  ASP63       0.1450
     41  CG        62.6940   61.1820   13.2100 C.2    63  ASP63       0.3671
     42  OD1       63.5070   61.9820   12.6810 O.co2  63  ASP63      -0.2456
     43  OD2       61.9070   60.4570   12.5460 O.co2  63  ASP63      -0.2456
     44  N         60.4970   58.2710   14.2270 N.am   64  PRO64      -0.2727
     45  CA        60.4570   56.8870   13.7590 C.3    64  PRO64       0.1402
     46  C         61.3260   56.5930   12.5470 C.2    64  PRO64       0.2269
     47  O         61.6500   55.4360   12.3150 O.2    64  PRO64      -0.2865
     48  CB        58.9790   56.6660   13.4240 C.3    64  PRO64       0.0296
     49  CG        58.2650   57.6790   14.2390 C.3    64  PRO64       0.0237
     50  CD        59.1640   58.8880   14.1800 C.3    64  PRO64       0.0939
     51  N         65.8810   55.4850   13.2940 N.3    67  GLY67      -0.1210
     52  CA        66.5030   54.1910   13.5680 C.3    67  GLY67       0.1956
     53  C         67.1000   54.0660   14.9530 C.2    67  GLY67       0.2612
     54  O         67.9580   53.2140   15.1960 O.2    67  GLY67      -0.2717
     55  N         66.6380   54.8990   15.8750 N.am   68  ASP68      -0.1960
     56  CA        67.1160   54.8990   17.2440 C.3    68  ASP68       0.1825
     57  C         65.9280   54.6460   18.1860 C.2    68  ASP68       0.2464
     58  O         65.3250   55.5990   18.6930 O.2    68  ASP68      -0.2730
     59  CB        67.7760   56.2540   17.5320 C.3    68  ASP68       0.1450
     60  CG        68.1560   56.4470   19.0010 C.2    68  ASP68       0.3671
     61  OD1       68.3940   57.6140   19.3850 O.co2  68  ASP68      -0.2456
     62  OD2       68.2300   55.4570   19.7670 O.co2  68  ASP68      -0.2456
     63  N         65.5840   53.3670   18.4310 N.am   69  PRO69      -0.2727
     64  CA        64.4740   53.0500   19.3450 C.3    69  PRO69       0.1402
     65  C         64.5960   53.6780   20.7340 C.2    69  PRO69       0.2269
     66  O         63.6020   53.7390   21.4710 O.2    69  PRO69      -0.2865
     67  CB        64.5210   51.5180   19.4780 C.3    69  PRO69       0.0296
     68  CG        65.7900   51.0920   18.8310 C.3    69  PRO69       0.0237
     69  CD        66.1990   52.1560   17.8660 C.3    69  PRO69       0.0939
     70  N         65.5930   56.8860   21.3980 N.3    71  THR71      -0.1218
     71  CA        65.5030   58.3390   21.3860 C.3    71  THR71       0.1862
     72  C         66.5390   58.8950   22.3720 C.2    71  THR71       0.2287
     73  O         66.1940   59.5770   23.3500 O.2    71  THR71      -0.2866
     74  CB        64.0720   58.8290   21.7830 C.3    71  THR71       0.1770
     75  OG1       63.0730   58.0210   21.1370 O.3    71  THR71      -0.2211
     76  CG2       63.8600   60.2960   21.4180 C.3    71  THR71       0.0375
@<TRIPOS>BOND
     1    47    46    2
     2    43    41   ar
     3    46    45    1
     4    42    41   ar
     5    41    40    1
     6    10    11   ar
     7    10     8   ar
     8    51    52    1
     9    11     9   ar
    10    48    45    1
    11    48    49    1
    12    52    53    1
    13    45    44    1
    14    50    44    1
    15    50    49    1
    16    44    38   am
    17     8     6   ar
    18     9     7   ar
    19    39    38    2
    20    38    37    1
    21    40    37    1
    22    53    54    2
    23    53    55   am
    24    37    36    1
    25     6     7   ar
    26     6     5    1
    27    55    56    1
    28     5     2    1
    29    36    29   am
    30    30    29    2
    31    56    59    1
    32    56    57    1
    33    29    28    1
    34    59    60    1
    35     2     3    1
    36     2     1    1
    37    69    63    1
    38    69    68    1
    39     4     3    2
    40    57    63   am
    41    57    58    2
    42    63    64    1
    43     3    12   am
    44    34    33    2
    45    20    21   ar
    46    20    18   ar
    47    21    19   ar
    48    68    67    1
    49    32    33    1
    50    32    31    1
    51    60    61   ar
    52    60    62   ar
    53    28    31    1
    54    28    27    1
    55    33    35   am
    56    64    67    1
    57    64    65    1
    58    18    17   ar
    59    19    17   ar
    60    12    13    1
    61    17    16    1
    62    13    16    1
    63    13    14    1
    64    65    66    2
    65    75    74    1
    66    71    70    1
    67    71    74    1
    68    71    72    1
    69    76    74    1
    70    14    15    2
    71    14    22   am
    72    22    23    1
    73    72    73    2
    74    23    26    1
    75    23    24    1
    76    24    25    2
