@<TRIPOS>MOLECULE
tmp/2b8jA00.pdb
 133 130 0 0 0
SMALL
GASTEIGER

@<TRIPOS>ATOM
      1  N         20.8040    1.2780   16.9300 N.3    45  ASP45      -0.1239
      2  CA        19.4540    1.7090   17.2620 C.3    45  ASP45       0.1674
      3  C         18.4960    1.8090   16.0680 C.2    45  ASP45       0.2266
      4  O         18.7630    2.5180   15.0630 O.2    45  ASP45      -0.2867
      5  CB        19.5800    3.0020   18.0250 C.3    45  ASP45       0.1410
      6  CG        20.4000    2.8080   19.2810 C.2    45  ASP45       0.3668
      7  OD1       19.9880    1.9440   20.0750 O.co2  45  ASP45      -0.2456
      8  OD2       21.4480    3.4600   19.4660 O.co2  45  ASP45      -0.2456
      9  N         14.1140    2.0300   21.6310 N.3    52  SER52      -0.1217
     10  CA        13.2280    3.0960   22.1380 C.3    52  SER52       0.1889
     11  C         12.8260    2.9880   23.6290 C.2    52  SER52       0.2288
     12  O         12.6470    4.0170   24.2900 O.2    52  SER52      -0.2866
     13  CB        11.9500    3.2260   21.2940 C.3    52  SER52       0.2089
     14  OG        12.2220    3.8940   20.0770 O.3    52  SER52      -0.2183
     15  N         15.5310    4.7100   25.6460 N.3    55  PHE55      -0.1227
     16  CA        15.5250    6.1520   25.3390 C.3    55  PHE55       0.1736
     17  C         14.2940    6.8710   25.8680 C.2    55  PHE55       0.2595
     18  O         14.3900    8.0040   26.3600 O.2    55  PHE55      -0.2718
     19  CB        15.7250    6.4220   23.8320 C.3    55  PHE55       0.0547
     20  CG        17.1010    6.1000   23.3610 C.ar   55  PHE55      -0.0202
     21  CD1       18.1120    7.0690   23.4050 C.ar   55  PHE55      -0.0042
     22  CD2       17.4150    4.8040   22.9060 C.ar   55  PHE55      -0.0042
     23  CE1       19.4200    6.7700   22.9910 C.ar   55  PHE55      -0.0003
     24  CE2       18.7420    4.4840   22.4760 C.ar   55  PHE55      -0.0003
     25  CZ        19.7440    5.4850   22.5260 C.ar   55  PHE55      -0.0000
     26  N         13.1370    6.2330   25.7210 N.am   56  TRP56      -0.1976
     27  CA        11.8600    6.7370   26.2790 C.3    56  TRP56       0.1640
     28  C         11.9500    6.8690   27.8100 C.2    56  TRP56       0.2290
     29  O         11.6640    7.9260   28.3950 O.2    56  TRP56      -0.2864
     30  CB        10.7150    5.7900   25.8790 C.3    56  TRP56       0.0576
     31  CG         9.3690    6.1250   26.4830 C.ar   56  TRP56       0.0006
     32  CD1        8.5760    5.2900   27.2430 C.ar   56  TRP56       0.0946
     33  CD2        8.6580    7.3660   26.3870 C.ar   56  TRP56       0.0152
     34  NE1        7.4330    5.9420   27.6360 N.ar   56  TRP56      -0.2442
     35  CE2        7.4450    7.2120   27.1250 C.ar   56  TRP56       0.0810
     36  CE3        8.9190    8.5950   25.7550 C.ar   56  TRP56       0.0012
     37  CZ2        6.4970    8.2410   27.2520 C.ar   56  TRP56       0.0191
     38  CZ3        7.9590    9.6360   25.8790 C.ar   56  TRP56       0.0001
     39  CH2        6.7660    9.4430   26.6310 C.ar   56  TRP56       0.0015
     40  N         14.4290    9.7500   28.7110 N.3    59  LYS59      -0.1245
     41  CA        13.8220   11.0640   28.5190 C.3    59  LYS59       0.1561
     42  C         12.9390   11.3860   29.7240 C.2    59  LYS59       0.2260
     43  O         13.0910   12.4560   30.3310 O.2    59  LYS59      -0.2867
     44  CB        12.9970   11.1270   27.2130 C.3    59  LYS59       0.0271
     45  CG        12.3870   12.5490   26.9150 C.3    59  LYS59       0.0035
     46  CD        11.3360   12.4830   25.7970 C.3    59  LYS59       0.0206
     47  CE        11.0880   13.8430   25.1180 C.3    59  LYS59       0.1093
     48  NZ        11.1010   14.9410   26.1010 N.3    59  LYS59      -0.1314
     49  N         15.3290   17.2760   25.0960 N.3    67  GLU67      -0.1245
     50  CA        16.2070   16.2140   24.5810 C.3    67  GLU67       0.1567
     51  C         17.5580   16.2420   25.2700 C.2    67  GLU67       0.2260
     52  O         18.5310   15.6620   24.7650 O.2    67  GLU67      -0.2867
     53  CB        16.4570   16.3950   23.0780 C.3    67  GLU67       0.0388
     54  CG        15.2380   16.6880   22.2720 C.3    67  GLU67       0.1160
     55  CD        14.4660   15.4530   21.9000 C.2    67  GLU67       0.3649
     56  OE1       15.0940   14.3920   21.6730 O.co2  67  GLU67      -0.2457
     57  OE2       13.2140   15.5500   21.8190 O.co2  67  GLU67      -0.2457
     58  N         18.5580   14.8100   27.8150 N.3    69  TYR69      -0.1227
     59  CA        19.0240   13.5140   28.3320 C.3    69  TYR69       0.1736
     60  C         20.0730   12.9360   27.3660 C.2    69  TYR69       0.2595
     61  O         20.9980   12.2310   27.7670 O.2    69  TYR69      -0.2718
     62  CB        17.8310   12.5720   28.5480 C.3    69  TYR69       0.0548
     63  CG        17.2380   11.9880   27.2690 C.ar   69  TYR69      -0.0200
     64  CD1       17.5040   10.6760   26.9070 C.ar   69  TYR69      -0.0009
     65  CD2       16.3940   12.7470   26.4280 C.ar   69  TYR69      -0.0009
     66  CE1       16.9580   10.1180   25.7500 C.ar   69  TYR69       0.0417
     67  CE2       15.8720   12.1980   25.2580 C.ar   69  TYR69       0.0417
     68  CZ        16.1550   10.8880   24.9340 C.ar   69  TYR69       0.1957
     69  OH        15.6300   10.3300   23.7940 O.3    69  TYR69      -0.2866
     70  N         19.9440   13.2720   26.0920 N.am   70  LEU70      -0.1980
     71  CA        20.8560   12.7510   25.0910 C.3    70  LEU70       0.1596
     72  C         22.2780   13.3030   25.2210 C.2    70  LEU70       0.2287
     73  O         23.1710   12.8210   24.5740 O.2    70  LEU70      -0.2864
     74  CB        20.3160   13.0070   23.7100 C.3    70  LEU70       0.0297
     75  CG        19.0950   12.2080   23.3330 C.3    70  LEU70       0.0022
     76  CD1       18.4990   12.8110   22.0960 C.3    70  LEU70       0.0001
     77  CD2       19.5170   10.7610   23.1350 C.3    70  LEU70       0.0001
     78  N         23.6490    7.9510   29.5750 N.3    76  TRP76      -0.1241
     79  CA        24.4850    7.0260   28.7820 C.3    76  TRP76       0.1605
     80  C         25.0420    5.8530   29.5780 C.2    76  TRP76       0.2264
     81  O         25.0670    4.7470   29.0880 O.2    76  TRP76      -0.2867
     82  CB        25.5930    7.7910   28.0390 C.3    76  TRP76       0.0550
     83  CG        24.9920    8.6630   26.9820 C.ar   76  TRP76       0.0003
     84  CD1       24.9920   10.0350   26.9370 C.ar   76  TRP76       0.0946
     85  CD2       24.2630    8.2250   25.8210 C.ar   76  TRP76       0.0152
     86  NE1       24.3480   10.4680   25.8130 N.ar   76  TRP76      -0.2442
     87  CE2       23.8740    9.3820   25.1150 C.ar   76  TRP76       0.0810
     88  CE3       23.9210    6.9650   25.3030 C.ar   76  TRP76       0.0012
     89  CZ2       23.1640    9.3190   23.9090 C.ar   76  TRP76       0.0191
     90  CZ3       23.1940    6.9030   24.1180 C.ar   76  TRP76       0.0001
     91  CH2       22.8420    8.0630   23.4230 C.ar   76  TRP76       0.0015
     92  N         26.0810    5.8600   17.1500 N.3   112  GLY112     -0.1210
     93  CA        26.1150    7.2780   17.5440 C.3   112  GLY112      0.1956
     94  C         25.9610    7.5360   19.0540 C.2   112  GLY112      0.2611
     95  O         26.1070    8.6760   19.5160 O.2   112  GLY112     -0.2717
     96  N         25.6460    6.4960   19.8240 N.am  113  ARG113     -0.1979
     97  CA        25.6570    6.6020   21.2720 C.3   113  ARG113      0.1597
     98  C         27.0000    7.1260   21.8030 C.2   113  ARG113      0.2287
     99  O         28.0510    6.8090   21.2430 O.2   113  ARG113     -0.2864
    100  CB        25.3620    5.2420   21.9160 C.3   113  ARG113      0.0334
    101  CG        23.9640    4.6650   21.6530 C.3   113  ARG113      0.0492
    102  CD        23.7720    3.3920   22.4870 C.3   113  ARG113      0.2205
    103  NE        22.5640    2.6120   22.1370 N.pl3 113  ARG113     -0.0865
    104  CZ        22.0860    1.6290   22.9000 C.cat 113  ARG113      0.5346
    105  NH1       22.6710    1.3350   24.0780 N.pl3 113  ARG113      0.1354
    106  NH2       21.0270    0.9390   22.5140 N.pl3 113  ARG113      0.1354
    107  N         27.9410   11.4690   19.0180 N.3   144  ASP144     -0.1239
    108  CA        27.1380   12.2760   18.1040 C.3   144  ASP144      0.1674
    109  C         27.5280   13.7440   18.2090 C.2   144  ASP144      0.2266
    110  O         27.5800   14.3080   19.3110 O.2   144  ASP144     -0.2867
    111  CB        25.6360   12.0690   18.3590 C.3   144  ASP144      0.1410
    112  CG        24.7700   12.3090   17.0930 C.2   144  ASP144      0.3668
    113  OD1       25.0020   11.6580   16.0300 O.co2 144  ASP144     -0.2456
    114  OD2       23.8460   13.1400   17.1730 O.co2 144  ASP144     -0.2456
    115  N         10.3050    5.8440   19.1350 N.3   191  THR191     -0.1203
    116  CA        10.1040    7.1810   19.6730 C.3   191  THR191      0.1994
    117  C         11.1020    8.1710   19.0370 C.2   191  THR191      0.2617
    118  O         11.0820    9.3870   19.3410 O.2   191  THR191     -0.2717
    119  CB        10.2160    7.1860   21.1770 C.3   191  THR191      0.1784
    120  OG1       11.4960    6.6700   21.5390 O.3   191  THR191     -0.2211
    121  CG2        9.1400    6.2860   21.7810 C.3   191  THR191      0.0376
    122  N         11.9620    7.6670   18.1520 N.am  192  TYR192     -0.1975
    123  CA        12.8640    8.5610   17.4150 C.3   192  TYR192      0.1639
    124  C         12.1510    8.9610   16.0990 C.2   192  TYR192      0.2290
    125  O         12.0490    8.1720   15.1460 O.2   192  TYR192     -0.2864
    126  CB        14.2350    7.9000   17.1880 C.3   192  TYR192      0.0560
    127  CG        15.3130    8.7660   16.5230 C.ar  192  TYR192     -0.0198
    128  CD1       15.1680   10.1490   16.3750 C.ar  192  TYR192     -0.0009
    129  CD2       16.4730    8.1760   16.0410 C.ar  192  TYR192     -0.0009
    130  CE1       16.1590   10.9150   15.7160 C.ar  192  TYR192      0.0417
    131  CE2       17.4680    8.9210   15.4300 C.ar  192  TYR192      0.0417
    132  CZ        17.3070   10.2860   15.2560 C.ar  192  TYR192      0.1957
    133  OH        18.3320   11.0000   14.6310 O.3   192  TYR192     -0.2866
@<TRIPOS>BOND
     1   133   132    1
     2     4     3    2
     3   125   124    2
     4   132   131   ar
     5   132   130   ar
     6   131   129   ar
     7   130   128   ar
     8   113   112   ar
     9   129   127   ar
    10     3     2    1
    11   124   123    1
    12   128   127   ar
    13   127   126    1
    14     1     2    1
    15   112   114   ar
    16   112   111    1
    17    92    93    1
    18   126   123    1
    19     2     5    1
    20   123   122    1
    21    93    94    1
    22     5     6    1
    23   108   109    1
    24   108   111    1
    25   108   107    1
    26   122   117   am
    27   109   110    2
    28   117   118    2
    29   117   116    1
    30    94    95    2
    31    94    96   am
    32   115   116    1
    33     6     8   ar
    34     6     7   ar
    35   116   119    1
    36    96    97    1
    37    14    13    1
    38   119   120    1
    39   119   121    1
    40    99    98    2
    41    97    98    1
    42    97   100    1
    43    13    10    1
    44     9    10    1
    45   101   100    1
    46   101   102    1
    47    56    55   ar
    48    57    55   ar
    49    55    54    1
    50    76    75    1
    51   103   102    1
    52   103   104    2
    53    10    11    1
    54    54    53    1
    55    24    25   ar
    56    24    22   ar
    57   106   104    1
    58    25    23   ar
    59   104   105    1
    60    22    20   ar
    61    23    21   ar
    62    53    50    1
    63    77    75    1
    64    75    74    1
    65    20    21   ar
    66    20    19    1
    67    91    89   ar
    68    91    90   ar
    69    11    12    2
    70    74    71    1
    71    69    68    1
    72    19    16    1
    73    89    87   ar
    74    90    88   ar
    75    73    72    2
    76    50    49    1
    77    50    51    1
    78    52    51    2
    79    68    67   ar
    80    68    66   ar
    81    71    72    1
    82    71    70    1
    83    87    86   ar
    84    87    85   ar
    85    47    46    1
    86    47    48    1
    87    67    65   ar
    88    88    85   ar
    89    16    15    1
    90    16    17    1
    91    26    17   am
    92    26    27    1
    93    66    64   ar
    94    36    38   ar
    95    36    33   ar
    96    46    45    1
    97    86    84   ar
    98    85    83   ar
    99    17    18    2
   100    30    27    1
   101    30    31    1
   102    38    39   ar
   103    70    60   am
   104    27    28    1
   105    33    31   ar
   106    33    35   ar
   107    65    63   ar
   108    31    32   ar
   109    39    37   ar
   110    64    63   ar
   111    45    44    1
   112    84    83   ar
   113    83    82    1
   114    35    37   ar
   115    35    34   ar
   116    44    41    1
   117    32    34   ar
   118    63    62    1
   119    60    61    2
   120    60    59    1
   121    28    29    2
   122    58    59    1
   123    82    79    1
   124    59    62    1
   125    41    40    1
   126    41    42    1
   127    79    78    1
   128    79    80    1
   129    81    80    2
   130    42    43    2
