@<TRIPOS>MOLECULE
tmp/2b8oB00.pdb
 176 173 0 0 0
SMALL
GASTEIGER

@<TRIPOS>ATOM
      1  N         20.4640    8.6540    1.7010 N.3    25  LEU25      -0.1231
      2  CA        21.7970    9.2350    1.7950 C.3    25  LEU25       0.1693
      3  C         22.2630    9.5360    3.1940 C.2    25  LEU25       0.2592
      4  O         23.0650    8.7930    3.7410 O.2    25  LEU25      -0.2718
      5  CB        21.9160   10.4770    0.9250 C.3    25  LEU25       0.0284
      6  CG        23.2990   11.1200    0.8510 C.3    25  LEU25       0.0019
      7  CD1       24.3160   10.1710    0.2110 C.3    25  LEU25       0.0001
      8  CD2       23.2040   12.4230    0.0760 C.3    25  LEU25       0.0001
      9  N         21.7590   10.6300    3.7630 N.am   26  CYS26      -0.1970
     10  CA        22.1160   11.0810    5.1160 C.3    26  CYS26       0.1712
     11  C         20.8520   11.5190    5.8200 C.2    26  CYS26       0.2296
     12  O         19.7530   11.0950    5.4710 O.2    26  CYS26      -0.2864
     13  CB        23.0800   12.2820    5.0410 C.3    26  CYS26       0.0983
     14  SG        24.8080   11.7910    5.3610 S.3    26  CYS26      -0.0798
     15  N         30.4060   15.7100    5.2100 N.3    41  HIS41      -0.1226
     16  CA        30.9250   14.4280    4.6990 C.3    41  HIS41       0.1752
     17  C         29.9030   13.5270    3.9880 C.2    41  HIS41       0.2596
     18  O         30.2360   12.3860    3.6430 O.2    41  HIS41      -0.2718
     19  CB        31.6580   13.6180    5.7880 C.3    41  HIS41       0.0759
     20  CG        30.7330   12.8620    6.7010 C.ar   41  HIS41       0.0818
     21  ND1       30.1270   13.4640    7.7720 N.ar   41  HIS41      -0.2268
     22  CD2       30.2160   11.6060    6.6170 C.ar   41  HIS41       0.1154
     23  CE1       29.2570   12.6260    8.3030 C.ar   41  HIS41       0.1986
     24  NE2       29.2920   11.4910    7.6260 N.ar   41  HIS41      -0.2212
     25  N         28.6480   13.9660    3.9190 N.am   42  CYS42      -0.1970
     26  CA        27.6320   13.1940    3.2090 C.3    42  CYS42       0.1712
     27  C         27.6930   13.4380    1.6950 C.2    42  CYS42       0.2296
     28  O         27.2130   12.6400    0.8880 O.2    42  CYS42      -0.2864
     29  CB        26.2670   13.6600    3.6390 C.3    42  CYS42       0.0983
     30  SG        25.9100   13.5020    5.3870 S.3    42  CYS42      -0.0798
     31  N         37.3510   14.6180    8.7190 N.3    87  THR87      -0.1218
     32  CA        36.2440   14.8510    9.6470 C.3    87  THR87       0.1862
     33  C         35.9900   16.2930   10.0060 C.2    87  THR87       0.2287
     34  O         34.8630   16.7240   10.2000 O.2    87  THR87      -0.2866
     35  CB        36.5360   14.1710   10.9700 C.3    87  THR87       0.1770
     36  OG1       37.8340   14.5800   11.4220 O.3    87  THR87      -0.2211
     37  CG2       36.5000   12.6630   10.8360 C.3    87  THR87       0.0375
     38  N         22.4120    2.6760   10.4440 N.3   134  GLN134     -0.1245
     39  CA        22.7350    1.3340   10.8880 C.3   134  GLN134      0.1566
     40  C         22.3540    1.0760   12.3320 C.2   134  GLN134      0.2260
     41  O         22.6780    1.8980   13.2000 O.2   134  GLN134     -0.2867
     42  CB        24.2250    1.0870   10.7230 C.3   134  GLN134      0.0367
     43  CG        24.7610    1.1670    9.3190 C.3   134  GLN134      0.0905
     44  CD        26.0900    0.4460    9.2050 C.2   134  GLN134      0.2608
     45  OE1       26.1450   -0.6680    8.7120 O.2   134  GLN134     -0.2717
     46  NE2       27.1660    1.0720    9.6730 N.am  134  GLN134     -0.0878
     47  N         26.8520   -2.0210   13.9940 N.3   137  ASP137     -0.1225
     48  CA        28.0320   -1.7230   13.2120 C.3   137  ASP137      0.1805
     49  C         28.0590   -2.7090   12.0710 C.2   137  ASP137      0.2597
     50  O         27.9530   -3.9170   12.3010 O.2   137  ASP137     -0.2718
     51  CB        29.2620   -1.9260   14.0750 C.3   137  ASP137      0.1424
     52  CG        30.3910   -1.0600   13.6520 C.2   137  ASP137      0.3668
     53  OD1       30.1030    0.0350   13.1420 O.co2 137  ASP137     -0.2456
     54  OD2       31.5580   -1.4420   13.8420 O.co2 137  ASP137     -0.2456
     55  N         28.1610   -2.2130   10.8470 N.am  138  ARG138     -0.1979
     56  CA        28.2070   -3.1290    9.7100 C.3   138  ARG138      0.1597
     57  C         26.8650   -3.8640    9.4910 C.2   138  ARG138      0.2287
     58  O         26.8290   -4.9620    8.9080 O.2   138  ARG138     -0.2864
     59  CB        29.3330   -4.1550    9.9360 C.3   138  ARG138      0.0334
     60  CG        30.7390   -3.5900    9.7620 C.3   138  ARG138      0.0492
     61  CD        31.8040   -4.5090   10.3650 C.3   138  ARG138      0.2205
     62  NE        31.9630   -4.2670   11.7930 N.pl3 138  ARG138     -0.0865
     63  CZ        33.1300   -4.0540   12.3920 C.cat 138  ARG138      0.5346
     64  NH1       34.2530   -4.0580   11.6840 N.pl3 138  ARG138      0.1354
     65  NH2       33.1780   -3.8350   13.7060 N.pl3 138  ARG138      0.1354
     66  N         24.9380    4.2950   20.6660 N.3   186  ASP186     -0.1225
     67  CA        25.8010    5.1710   19.8410 C.3   186  ASP186      0.1805
     68  C         25.0260    5.4960   18.5770 C.2   186  ASP186      0.2598
     69  O         24.0570    4.8010   18.2680 O.2   186  ASP186     -0.2718
     70  CB        27.0900    4.4050   19.4390 C.3   186  ASP186      0.1424
     71  CG        28.2020    5.3300   18.9410 C.2   186  ASP186      0.3668
     72  OD1       27.9110    6.4990   18.6110 O.co2 186  ASP186     -0.2456
     73  OD2       29.3830    4.8980   18.9030 O.co2 186  ASP186     -0.2456
     74  N         25.3770    6.5920   17.9070 N.am  187  SER187     -0.1938
     75  CA        24.7420    6.9200   16.6320 C.3   187  SER187      0.2055
     76  C         25.6160    6.0830   15.6720 C.2   187  SER187      0.2643
     77  O         26.6290    5.5130   16.1010 O.2   187  SER187     -0.2714
     78  CB        24.7380    8.4360   16.3460 C.3   187  SER187      0.2130
     79  OG        26.0210    9.0380   16.3950 O.3   187  SER187     -0.2179
     80  N         25.2550    5.9770   14.3990 N.am  188  CYS188     -0.1953
     81  CA        26.0140    5.1180   13.4960 C.3   188  CYS188      0.1843
     82  C         26.0450    5.7020   12.0780 C.2   188  CYS188      0.2625
     83  O         25.6390    6.8620   11.8840 O.2   188  CYS188     -0.2714
     84  CB        25.3040    3.7710   13.5340 C.3   188  CYS188      0.0997
     85  SG        26.2990    2.2480   13.3900 S.3   188  CYS188     -0.0797
     86  N         26.5470    4.9350   11.0970 N.am  189  LYS189     -0.1963
     87  CA        26.5670    5.4350    9.7280 C.3   189  LYS189      0.1728
     88  C         25.1320    5.4220    9.1780 C.2   189  LYS189      0.2616
     89  O         24.3250    4.5410    9.4770 O.2   189  LYS189     -0.2715
     90  CB        27.5720    4.6590    8.8570 C.3   189  LYS189      0.0311
     91  CG        27.0140    3.5030    8.0140 C.3   189  LYS189      0.0038
     92  CD        26.5350    3.9220    6.6040 C.3   189  LYS189      0.0206
     93  CE        25.5820    2.8510    6.0180 C.3   189  LYS189      0.1093
     94  NZ        24.1580    3.3440    5.8400 N.3   189  LYS189     -0.1314
     95  N         24.8030    6.4300    8.4000 N.am  190  GLY190     -0.1955
     96  CA        23.4610    6.5180    7.8790 C.3   190  GLY190      0.1869
     97  C         22.6850    7.4630    8.7620 C.2   190  GLY190      0.2309
     98  O         21.4990    7.7270    8.5270 O.2   190  GLY190     -0.2863
     99  N         24.3240   10.5510   10.0370 N.3   192  SER192     -0.1217
    100  CA        24.9390   11.8510    9.7860 C.3   192  SER192      0.1889
    101  C         24.0970   13.0520    9.5370 C.2   192  SER192      0.2288
    102  O         22.9710   12.9360    9.1000 O.2   192  SER192     -0.2866
    103  CB        25.9730   11.7540    8.7130 C.3   192  SER192      0.2089
    104  OG        27.1260   11.1910    9.2560 O.3   192  SER192     -0.2183
    105  N         25.5000   14.7130   13.7540 N.3   210  VAL210     -0.1231
    106  CA        26.2770   13.4800   13.7750 C.3   210  VAL210      0.1692
    107  C         27.4640   13.4300   12.8070 C.2   210  VAL210      0.2593
    108  O         27.3610   12.8850   11.7050 O.2   210  VAL210     -0.2718
    109  CB        25.4180   12.2350   13.5370 C.3   210  VAL210      0.0266
    110  CG1       26.2410   11.0120   13.9330 C.3   210  VAL210      0.0020
    111  CG2       24.1180   12.3040   14.3290 C.3   210  VAL210      0.0020
    112  N         28.6010   13.9550   13.2410 N.am  211  SER211     -0.1938
    113  CA        29.8270   14.0030   12.4530 C.3   211  SER211      0.2055
    114  C         30.5120   12.6340   12.2560 C.2   211  SER211      0.2643
    115  O         30.1340   11.8930   11.3570 O.2   211  SER211     -0.2714
    116  CB        30.7500   15.0340   13.1030 C.3   211  SER211      0.2130
    117  OG        32.0340   15.0660   12.5370 O.3   211  SER211     -0.2179
    118  N         31.4620   12.2580   13.1170 N.am  212  TRP212     -0.1959
    119  CA        32.1740   10.9770   12.9390 C.3   212  TRP212      0.1771
    120  C         32.1290    9.9830   14.1060 C.2   212  TRP212      0.2620
    121  O         31.0880    9.7900   14.7130 O.2   212  TRP212     -0.2715
    122  CB        33.6210   11.2510   12.5660 C.3   212  TRP212      0.0590
    123  CG        34.3520   12.1510   13.5290 C.ar  212  TRP212      0.0006
    124  CD1       34.2370   13.5060   13.6160 C.ar  212  TRP212      0.0946
    125  CD2       35.4630   11.7850   14.3670 C.ar  212  TRP212      0.0152
    126  NE1       35.2290   14.0050   14.4170 N.ar  212  TRP212     -0.2442
    127  CE2       35.9900   12.9710   14.8960 C.ar  212  TRP212      0.0810
    128  CE3       36.0730   10.5670   14.7080 C.ar  212  TRP212      0.0012
    129  CZ2       37.0980   12.9880   15.7290 C.ar  212  TRP212      0.0191
    130  CZ3       37.1990   10.5770   15.5490 C.ar  212  TRP212      0.0001
    131  CH2       37.6920   11.7850   16.0490 C.ar  212  TRP212      0.0015
    132  N         33.2380    9.3010   14.3660 N.am  213  GLY213     -0.1940
    133  CA        33.2690    8.3710   15.4540 C.3   213  GLY213      0.2014
    134  C         33.7030    7.0170   14.9780 C.2   213  GLY213      0.2639
    135  O         33.2180    6.5340   13.9700 O.2   213  GLY213     -0.2714
    136  N         34.6300    6.4230   15.7300 N.am  214  GLN214     -0.1963
    137  CA        35.1670    5.1010   15.4340 C.3   214  GLN214      0.1733
    138  C         34.1830    3.9830   15.7530 C.2   214  GLN214      0.2617
    139  O         33.8750    3.7230   16.9260 O.2   214  GLN214     -0.2715
    140  CB        36.4590    4.8610   16.2220 C.3   214  GLN214      0.0408
    141  CG        36.6590    3.3960   16.5720 C.3   214  GLN214      0.0908
    142  CD        38.0580    2.9200   16.3270 C.2   214  GLN214      0.2608
    143  OE1       39.0120    3.7090   16.3630 O.2   214  GLN214     -0.2717
    144  NE2       38.2040    1.6130   16.0940 N.am  214  GLN214     -0.0878
    145  N         33.7770    3.2550   14.7270 N.am  215  GLY215     -0.1940
    146  CA        32.8570    2.1680   14.9540 C.3   215  GLY215      0.2014
    147  C         31.5070    2.6910   15.3680 C.2   215  GLY215      0.2639
    148  O         31.1850    3.8790   15.1880 O.2   215  GLY215     -0.2714
    149  N         30.7390    1.7960   15.9740 N.am  216  CYS216     -0.1967
    150  CA        29.3950    2.1060   16.4280 C.3   216  CYS216      0.1712
    151  C         29.2090    1.3250   17.7040 C.2   216  CYS216      0.2296
    152  O         29.3410    0.1030   17.7060 O.2   216  CYS216     -0.2864
    153  CB        28.3930    1.6540   15.3750 C.3   216  CYS216      0.0983
    154  SG        28.1740    2.7850   13.9390 S.3   216  CYS216     -0.0798
    155  N         33.6070    7.1310   22.1620 N.3   222  PHE222     -0.1227
    156  CA        32.3540    7.8850   22.1210 C.3   222  PHE222      0.1736
    157  C         32.0850    8.3850   20.7230 C.2   222  PHE222      0.2596
    158  O         32.9850    8.4100   19.8950 O.2   222  PHE222     -0.2718
    159  CB        32.4240    9.1040   23.0270 C.3   222  PHE222      0.0547
    160  CG        32.8850    8.8020   24.3760 C.ar  222  PHE222     -0.0202
    161  CD1       31.9740    8.5210   25.3690 C.ar  222  PHE222     -0.0042
    162  CD2       34.2370    8.7850   24.6620 C.ar  222  PHE222     -0.0042
    163  CE1       32.4000    8.2390   26.6110 C.ar  222  PHE222     -0.0003
    164  CE2       34.6580    8.5000   25.9160 C.ar  222  PHE222     -0.0003
    165  CZ        33.7340    8.2280   26.8850 C.ar  222  PHE222     -0.0000
    166  N         30.8470    8.8250   20.5060 N.am  223  GLY223     -0.1942
    167  CA        30.4550    9.3690   19.2290 C.3   223  GLY223      0.2014
    168  C         30.8690   10.8210   19.1500 C.2   223  GLY223      0.2638
    169  O         30.5190   11.5940   20.0460 O.2   223  GLY223     -0.2714
    170  N         31.6030   11.2120   18.1120 N.am  224  VAL224     -0.1977
    171  CA        32.0260   12.6100   18.0140 C.3   224  VAL224      0.1596
    172  C         31.0090   13.4270   17.2170 C.2   224  VAL224      0.2287
    173  O         30.4190   12.9280   16.2710 O.2   224  VAL224     -0.2864
    174  CB        33.4100   12.6810   17.3990 C.3   224  VAL224      0.0276
    175  CG1       33.9050   14.0640   17.4140 C.3   224  VAL224      0.0022
    176  CG2       34.3480   11.7930   18.1590 C.3   224  VAL224      0.0022
@<TRIPOS>BOND
     1     8     6    1
     2     7     6    1
     3     6     5    1
     4    28    27    2
     5     5     2    1
     6    27    26    1
     7     1     2    1
     8     2     3    1
     9     3     4    2
    10     3     9   am
    11    26    29    1
    12    26    25    1
    13    29    30    1
    14    18    17    2
    15     9    10    1
    16    25    17   am
    17    17    16    1
    18    16    15    1
    19    16    19    1
    20    13    10    1
    21    13    14    1
    22    10    11    1
    23    14    30    1
    24    12    11    2
    25    19    20    1
    26    94    93    1
    27    93    92    1
    28    92    91    1
    29    22    20   ar
    30    22    24   ar
    31    20    21   ar
    32    24    23   ar
    33    21    23   ar
    34    96    95    1
    35    96    97    1
    36    91    90    1
    37    95    88   am
    38    98    97    2
    39    45    44    2
    40   103   104    1
    41   103   100    1
    42    31    32    1
    43    90    87    1
    44    58    57    2
    45   102   101    2
    46    88    89    2
    47    88    87    1
    48    44    43    1
    49    44    46   am
    50    43    42    1
    51    57    56    1
    52   101   100    1
    53    32    33    1
    54    32    35    1
    55    56    59    1
    56    56    55    1
    57    87    86    1
    58    60    59    1
    59    60    61    1
    60   100    99    1
    61    33    34    2
    62    61    62    1
    63    38    39    1
    64    42    39    1
    65    37    35    1
    66    55    49   am
    67    39    40    1
    68    35    36    1
    69    86    82   am
    70   115   114    2
    71    64    63    1
    72   108   107    2
    73    62    63    2
    74    83    82    2
    75    49    50    2
    76    49    48    1
    77    82    81    1
    78   114   113    1
    79   114   118   am
    80    40    41    2
    81    63    65    1
    82   113   116    1
    83   113   112    1
    84   117   116    1
    85   122   119    1
    86   122   123    1
    87   107   112   am
    88   107   106    1
    89   119   118    1
    90   119   120    1
    91    53    52   ar
    92    48    47    1
    93    48    51    1
    94    85    84    1
    95    85   154    1
    96    81    84    1
    97    81    80    1
    98   123   124   ar
    99   123   125   ar
   100   109   106    1
   101   109   110    1
   102   109   111    1
   103   124   126   ar
   104    52    54   ar
   105    52    51    1
   106   105   106    1
   107   154   153    1
   108   135   134    2
   109   120   132   am
   110   120   121    2
   111   132   133    1
   112   125   128   ar
   113   125   127   ar
   114    80    76   am
   115   126   127   ar
   116   128   130   ar
   117   145   146    1
   118   145   138   am
   119   127   129   ar
   120   146   147    1
   121   134   133    1
   122   134   136   am
   123   148   147    2
   124   147   149   am
   125   153   150    1
   126   137   136    1
   127   137   138    1
   128   137   140    1
   129   130   131   ar
   130    76    77    2
   131    76    75    1
   132   129   131   ar
   133   138   139    2
   134   149   150    1
   135   144   142   am
   136   140   141    1
   137   173   172    2
   138   142   143    2
   139   142   141    1
   140    78    79    1
   141    78    75    1
   142   150   151    1
   143    75    74    1
   144   172   171    1
   145   174   175    1
   146   174   171    1
   147   174   176    1
   148   151   152    2
   149    74    68   am
   150   171   170    1
   151   170   168   am
   152    69    68    2
   153    68    67    1
   154    72    71   ar
   155    73    71   ar
   156    71    70    1
   157   168   167    1
   158   168   169    2
   159   167   166    1
   160    70    67    1
   161    67    66    1
   162   158   157    2
   163   166   157   am
   164   157   156    1
   165   156   155    1
   166   156   159    1
   167   159   160    1
   168   160   162   ar
   169   160   161   ar
   170   162   164   ar
   171   161   163   ar
   172   164   165   ar
   173   163   165   ar
