@<TRIPOS>MOLECULE
tmp/2b8tC00.pdb
 157 149 0 0 0
SMALL
GASTEIGER

@<TRIPOS>ATOM
      1  N         18.1130  -14.3180   30.3090 N.3    11  MET11      -0.1245
      2  CA        19.5620  -14.4070   30.2160 C.3    11  MET11       0.1570
      3  C         19.9190  -14.5940   28.7470 C.2    11  MET11       0.2261
      4  O         19.0830  -15.0600   27.9560 O.2    11  MET11      -0.2867
      5  CB        20.0970  -15.5620   31.0660 C.3    11  MET11       0.0387
      6  CG        19.8910  -15.3660   32.5720 C.3    11  MET11       0.0595
      7  SD        20.5200  -16.7230   33.5800 S.3    11  MET11      -0.1393
      8  CE        22.2820  -16.5600   33.2970 C.3    11  MET11       0.0692
      9  N         21.3780   -7.8230   27.6700 N.3    15  LYS15      -0.1245
     10  CA        20.9260   -6.6840   28.4890 C.3    15  LYS15       0.1561
     11  C         22.0810   -5.7490   28.8800 C.2    15  LYS15       0.2260
     12  O         22.0090   -4.5290   28.6750 O.2    15  LYS15      -0.2867
     13  CB        20.2390   -7.1870   29.7630 C.3    15  LYS15       0.0271
     14  CG        18.8340   -7.7460   29.5680 C.3    15  LYS15       0.0035
     15  CD        18.1860   -8.0980   30.9120 C.3    15  LYS15       0.0206
     16  CE        19.0180   -9.0840   31.7330 C.3    15  LYS15       0.1093
     17  NZ        19.2450  -10.3750   31.0080 N.3    15  LYS15      -0.1314
     18  N         26.9460   -9.1810   44.5610 N.3    40  ILE40      -0.1245
     19  CA        26.7710  -10.5120   43.9780 C.3    40  ILE40       0.1561
     20  C         28.0320  -11.3560   44.1550 C.2    40  ILE40       0.2260
     21  O         29.1200  -10.9520   43.7300 O.2    40  ILE40      -0.2867
     22  CB        26.4290  -10.4320   42.4570 C.3    40  ILE40       0.0252
     23  CG1       25.1590   -9.6100   42.2200 C.3    40  ILE40       0.0019
     24  CG2       26.2980  -11.8310   41.8440 C.3    40  ILE40       0.0019
     25  CD1       25.0420   -9.0680   40.8120 C.3    40  ILE40       0.0001
     26  N         21.7780   -5.6610   37.0180 N.3    79  GLU79      -0.1245
     27  CA        21.3320   -6.7990   37.8290 C.3    79  GLU79       0.1567
     28  C         20.3090   -6.3640   38.8780 C.2    79  GLU79       0.2260
     29  O         20.3480   -6.8070   40.0240 O.2    79  GLU79      -0.2867
     30  CB        22.5180   -7.5190   38.4960 C.3    79  GLU79       0.0388
     31  CG        23.6030   -8.0200   37.5260 C.3    79  GLU79       0.1160
     32  CD        23.2060   -9.2860   36.7710 C.2    79  GLU79       0.3649
     33  OE1       22.0360   -9.7120   36.8560 O.co2  79  GLU79      -0.2457
     34  OE2       24.0770   -9.8640   36.0890 O.co2  79  GLU79      -0.2457
     35  N         18.2770   -8.3250   41.8030 N.3    82  PHE82      -0.1241
     36  CA        18.8490   -8.7390   43.0900 C.3    82  PHE82       0.1605
     37  C         18.5730   -7.7610   44.2310 C.2    82  PHE82       0.2264
     38  O         18.8330   -8.0730   45.4070 O.2    82  PHE82      -0.2867
     39  CB        20.3520   -9.0080   42.9720 C.3    82  PHE82       0.0534
     40  CG        20.6910  -10.2410   42.1770 C.ar   82  PHE82      -0.0203
     41  CD1       20.0930  -11.4670   42.4630 C.ar   82  PHE82      -0.0042
     42  CD2       21.6280  -10.1800   41.1570 C.ar   82  PHE82      -0.0042
     43  CE1       20.4170  -12.6090   41.7300 C.ar   82  PHE82      -0.0003
     44  CE2       21.9600  -11.3150   40.4300 C.ar   82  PHE82      -0.0003
     45  CZ        21.3470  -12.5290   40.7180 C.ar   82  PHE82      -0.0000
     46  N         16.8890   -8.9110   34.8820 N.3   106  LEU106     -0.1245
     47  CA        16.0230  -10.0080   34.4230 C.3   106  LEU106      0.1561
     48  C         14.5740   -9.7560   34.8000 C.2   106  LEU106      0.2260
     49  O         14.2980   -9.3330   35.9160 O.2   106  LEU106     -0.2867
     50  CB        16.4760  -11.3300   35.0540 C.3   106  LEU106      0.0270
     51  CG        17.7740  -11.9770   34.5790 C.3   106  LEU106      0.0019
     52  CD1       18.2570  -13.0350   35.5630 C.3   106  LEU106      0.0001
     53  CD2       17.5900  -12.5830   33.1890 C.3   106  LEU106      0.0001
     54  N         12.2500  -12.2840   34.6420 N.3   108  LYS108     -0.1231
     55  CA        11.7720  -13.5460   35.2050 C.3   108  LYS108      0.1693
     56  C         12.8790  -14.3260   35.9030 C.2   108  LYS108      0.2592
     57  O         14.0090  -14.3660   35.4270 O.2   108  LYS108     -0.2718
     58  CB        11.1870  -14.4330   34.1060 C.3   108  LYS108      0.0285
     59  CG         9.9620  -13.8730   33.3950 C.3   108  LYS108      0.0035
     60  CD         9.4740  -14.8690   32.3640 C.3   108  LYS108      0.0206
     61  CE         8.3700  -14.2840   31.4930 C.3   108  LYS108      0.1093
     62  NZ         8.9490  -13.4380   30.4330 N.3   108  LYS108     -0.1314
     63  N         12.5460  -14.9620   37.0230 N.am  109  ASN109     -0.1960
     64  CA        13.4390  -15.9550   37.6080 C.3   109  ASN109      0.1819
     65  C         13.2780  -17.2870   36.8590 C.2   109  ASN109      0.2621
     66  O         12.5390  -17.3590   35.8740 O.2   109  ASN109     -0.2715
     67  CB        13.2620  -16.0720   39.1390 C.3   109  ASN109      0.1195
     68  CG        11.8510  -16.4800   39.5620 C.2   109  ASN109      0.2630
     69  OD1       11.1800  -17.2570   38.8830 O.2   109  ASN109     -0.2716
     70  ND2       11.4130  -15.9750   40.7170 N.am  109  ASN109     -0.0877
     71  N         13.9900  -18.3220   37.2960 N.am  110  PHE110     -0.1974
     72  CA        13.9430  -19.6370   36.6350 C.3   110  PHE110      0.1639
     73  C         12.5390  -20.2650   36.5950 C.2   110  PHE110      0.2290
     74  O         12.2670  -21.1180   35.7490 O.2   110  PHE110     -0.2864
     75  CB        14.9470  -20.6000   37.2830 C.3   110  PHE110      0.0560
     76  CG        14.4750  -21.2000   38.5810 C.ar  110  PHE110     -0.0200
     77  CD1       13.9280  -22.4850   38.6070 C.ar  110  PHE110     -0.0042
     78  CD2       14.5940  -20.5000   39.7780 C.ar  110  PHE110     -0.0042
     79  CE1       13.4910  -23.0520   39.7970 C.ar  110  PHE110     -0.0003
     80  CE2       14.1630  -21.0640   40.9790 C.ar  110  PHE110     -0.0003
     81  CZ        13.6080  -22.3380   40.9870 C.ar  110  PHE110     -0.0000
     82  N         11.0320  -11.5660   38.7650 N.3   115  PHE115     -0.1241
     83  CA        12.2580  -11.6890   39.5550 C.3   115  PHE115      0.1605
     84  C         12.3770  -10.5450   40.5660 C.2   115  PHE115      0.2264
     85  O         12.6180   -9.4050   40.1910 O.2   115  PHE115     -0.2867
     86  CB        13.4970  -11.7250   38.6380 C.3   115  PHE115      0.0534
     87  CG        14.7060  -12.4230   39.2480 C.ar  115  PHE115     -0.0203
     88  CD1       15.5710  -13.1560   38.4460 C.ar  115  PHE115     -0.0042
     89  CD2       14.9680  -12.3550   40.6200 C.ar  115  PHE115     -0.0042
     90  CE1       16.6830  -13.7950   38.9880 C.ar  115  PHE115     -0.0003
     91  CE2       16.0740  -12.9980   41.1790 C.ar  115  PHE115     -0.0003
     92  CZ        16.9360  -13.7200   40.3620 C.ar  115  PHE115     -0.0000
     93  N         14.3150  -17.6740   31.0220 N.3   145  SER145     -0.1217
     94  CA        15.5550  -18.3230   31.4390 C.3   145  SER145      0.1889
     95  C         15.2080  -19.6780   32.0380 C.2   145  SER145      0.2288
     96  O         14.3140  -19.7740   32.8860 O.2   145  SER145     -0.2866
     97  CB        16.3100  -17.4820   32.4670 C.3   145  SER145      0.2089
     98  OG        16.6110  -16.1900   31.9630 O.3   145  SER145     -0.2183
     99  N         16.6260  -23.1440   34.0140 N.3   147  ARG147     -0.1245
    100  CA        17.7010  -23.7240   34.8150 C.3   147  ARG147      0.1563
    101  C         17.6410  -25.2480   34.7640 C.2   147  ARG147      0.2260
    102  O         16.5800  -25.8390   34.9700 O.2   147  ARG147     -0.2867
    103  CB        17.6300  -23.2450   36.2740 C.3   147  ARG147      0.0307
    104  CG        18.8510  -23.6190   37.1180 C.3   147  ARG147      0.0489
    105  CD        18.6090  -23.4450   38.6130 C.3   147  ARG147      0.2205
    106  NE        18.4810  -22.0460   39.0090 N.pl3 147  ARG147     -0.0865
    107  CZ        17.9550  -21.6380   40.1640 C.cat 147  ARG147      0.5346
    108  NH1       17.4920  -22.5250   41.0340 N.pl3 147  ARG147      0.1354
    109  NH2       17.8800  -20.3390   40.4450 N.pl3 147  ARG147      0.1354
    110  N         15.7320  -19.5710   44.4580 N.3   160  ILE160     -0.1231
    111  CA        15.6580  -18.5660   43.4050 C.3   160  ILE160      0.1692
    112  C         17.0470  -18.0340   43.0460 C.2   160  ILE160      0.2592
    113  O         17.4280  -18.0270   41.8730 O.2   160  ILE160     -0.2718
    114  CB        14.6880  -17.4220   43.7940 C.3   160  ILE160      0.0266
    115  CG1       13.2360  -17.9030   43.6670 C.3   160  ILE160      0.0019
    116  CG2       14.9400  -16.1700   42.9440 C.3   160  ILE160      0.0020
    117  CD1       12.2160  -17.0420   44.3780 C.3   160  ILE160      0.0001
    118  N         17.8070  -17.6010   44.0500 N.am  161  VAL161     -0.1966
    119  CA        19.1510  -17.0910   43.7990 C.3   161  VAL161      0.1727
    120  C         20.1120  -18.2630   43.6000 C.2   161  VAL161      0.2616
    121  O         20.2590  -19.1130   44.4690 O.2   161  VAL161     -0.2715
    122  CB        19.6320  -16.1240   44.9080 C.3   161  VAL161      0.0290
    123  CG1       21.0960  -15.7390   44.6950 C.3   161  VAL161      0.0023
    124  CG2       18.7640  -14.8660   44.9230 C.3   161  VAL161      0.0023
    125  N         20.7150  -18.3190   42.4150 N.am  162  LYS162     -0.1963
    126  CA        21.7320  -19.3170   42.0990 C.3   162  LYS162      0.1728
    127  C         22.6070  -18.7480   40.9950 C.2   162  LYS162      0.2616
    128  O         22.2220  -18.7340   39.8190 O.2   162  LYS162     -0.2715
    129  CB        21.0930  -20.6430   41.6790 C.3   162  LYS162      0.0311
    130  CG        22.0530  -21.8130   41.6260 C.3   162  LYS162      0.0038
    131  CD        21.2900  -23.1250   41.7190 C.3   162  LYS162      0.0206
    132  CE        22.2180  -24.3220   41.6860 C.3   162  LYS162      0.1093
    133  NZ        22.7710  -24.5240   40.3250 N.3   162  LYS162     -0.1314
    134  N         23.7700  -18.2450   41.3950 N.am  163  ILE163     -0.1963
    135  CA        24.6500  -17.5200   40.4830 C.3   163  ILE163      0.1727
    136  C         25.3090  -18.5000   39.5240 C.2   163  ILE163      0.2616
    137  O         25.6690  -19.6150   39.9070 O.2   163  ILE163     -0.2715
    138  CB        25.7100  -16.6690   41.2500 C.3   163  ILE163      0.0290
    139  CG1       25.0430  -15.8000   42.3300 C.3   163  ILE163      0.0022
    140  CG2       26.5420  -15.8010   40.2840 C.3   163  ILE163      0.0023
    141  CD1       23.9200  -14.8710   41.8140 C.3   163  ILE163      0.0001
    142  N         25.4370  -18.0860   38.2710 N.am  164  GLY164     -0.1955
    143  CA        26.0740  -18.9110   37.2600 C.3   164  GLY164      0.1869
    144  C         25.6790  -18.4970   35.8620 C.2   164  GLY164      0.2309
    145  O         24.8590  -17.6000   35.6780 O.2   164  GLY164     -0.2863
    146  N         22.1980  -22.4780   33.1360 N.3   169  TYR169     -0.1241
    147  CA        21.1430  -21.6780   32.4930 C.3   169  TYR169      0.1605
    148  C         21.1360  -21.6810   30.9650 C.2   169  TYR169      0.2264
    149  O         22.1850  -21.7340   30.3270 O.2   169  TYR169     -0.2867
    150  CB        21.2140  -20.2230   32.9730 C.3   169  TYR169      0.0534
    151  CG        20.9110  -20.0260   34.4420 C.ar  169  TYR169     -0.0201
    152  CD1       19.5950  -20.0180   34.9070 C.ar  169  TYR169     -0.0009
    153  CD2       21.9380  -19.8160   35.3610 C.ar  169  TYR169     -0.0009
    154  CE1       19.3110  -19.8320   36.2610 C.ar  169  TYR169      0.0417
    155  CE2       21.6640  -19.6310   36.7150 C.ar  169  TYR169      0.0417
    156  CZ        20.3540  -19.6380   37.1540 C.ar  169  TYR169      0.1957
    157  OH        20.0830  -19.4460   38.4850 O.3   169  TYR169     -0.2866
@<TRIPOS>BOND
     1     9    10    1
     2     4     3    2
     3    10    11    1
     4    10    13    1
     5    12    11    2
     6     3     2    1
     7    14    13    1
     8    14    15    1
     9     2     1    1
    10     2     5    1
    11   149   148    2
    12    62    61    1
    13    15    16    1
    14   148   147    1
    15    17    16    1
    16    93    94    1
    17     5     6    1
    18    94    95    1
    19    94    97    1
    20    61    60    1
    21    98    97    1
    22    95    96    2
    23    60    59    1
    24   147   150    1
    25   147   146    1
    26     6     7    1
    27   150   151    1
    28    53    51    1
    29     8     7    1
    30    59    58    1
    31    99   100    1
    32    58    55    1
    33    47    48    1
    34    47    46    1
    35    47    50    1
    36   151   152   ar
    37   151   153   ar
    38    51    50    1
    39    51    52    1
    40    54    55    1
    41   101   100    1
    42   101   102    2
    43    48    49    2
    44   100   103    1
    45   152   154   ar
    46    55    56    1
    47   153   155   ar
    48    57    56    2
    49   145   144    2
    50    74    73    2
    51   144   143    1
    52    66    65    2
    53    56    63   am
    54    34    32   ar
    55   154   156   ar
    56   103   104    1
    57    73    72    1
    58    72    75    1
    59    72    71    1
    60   155   156   ar
    61    32    33   ar
    62    32    31    1
    63    65    71   am
    64    65    64    1
    65    26    27    1
    66    63    64    1
    67   104   105    1
    68   156   157    1
    69   143   142    1
    70    75    76    1
    71    31    30    1
    72    64    67    1
    73    27    30    1
    74    27    28    1
    75   142   136   am
    76    88    90   ar
    77    88    87   ar
    78    76    77   ar
    79    76    78   ar
    80    77    79   ar
    81   105   106    1
    82    86    87    1
    83    86    83    1
    84    82    83    1
    85    28    29    2
    86    69    68    2
    87    90    92   ar
    88   106   107    2
    89    67    68    1
    90    87    89   ar
    91   136   137    2
    92   136   135    1
    93    83    84    1
    94    68    70   am
    95    78    80   ar
    96    79    81   ar
    97   128   127    2
    98   107   109    1
    99   107   108    1
   100    85    84    2
   101   140   138    1
   102   133   132    1
   103    92    91   ar
   104    44    45   ar
   105    44    42   ar
   106   135   138    1
   107   135   134    1
   108    89    91   ar
   109    45    43   ar
   110    25    23    1
   111    80    81   ar
   112   127   134   am
   113   127   126    1
   114    42    40   ar
   115   138   139    1
   116   130   129    1
   117   130   131    1
   118   129   126    1
   119   132   131    1
   120    43    41   ar
   121    35    36    1
   122   141   139    1
   123    24    22    1
   124   113   112    2
   125   126   125    1
   126    40    41   ar
   127    40    39    1
   128    23    22    1
   129   125   120   am
   130    22    19    1
   131   116   114    1
   132    39    36    1
   133   112   111    1
   134   112   118   am
   135    36    37    1
   136   111   114    1
   137   111   110    1
   138   120   119    1
   139   120   121    2
   140   115   114    1
   141   115   117    1
   142    21    20    2
   143   119   118    1
   144   119   122    1
   145    19    20    1
   146    19    18    1
   147    37    38    2
   148   123   122    1
   149   122   124    1
