@<TRIPOS>MOLECULE
tmp/2b8tD01.pdb
 105 103 0 0 0
SMALL
GASTEIGER

@<TRIPOS>ATOM
      1  N         22.7410    8.2350   13.6230 N.3     9  PRO9       -0.2102
      2  CA        24.0000    8.9560   13.3980 C.3     9  PRO9        0.1504
      3  C         25.2410    8.2470   13.9430 C.2     9  PRO9        0.2576
      4  O         25.1510    7.1460   14.4940 O.2     9  PRO9       -0.2718
      5  CB        23.7820   10.2700   14.1590 C.3     9  PRO9        0.0282
      6  CG        22.9070    9.8710   15.2960 C.3     9  PRO9        0.0208
      7  CD        21.9560    8.8420   14.7150 C.3     9  PRO9        0.0893
      8  N         26.3950    8.8900   13.7890 N.am   10  MET10      -0.1966
      9  CA        27.6200    8.3920   14.3940 C.3    10  MET10       0.1736
     10  C         27.4900    8.5050   15.9100 C.2    10  MET10       0.2616
     11  O         26.7450    9.3520   16.4180 O.2    10  MET10      -0.2715
     12  CB        28.8360    9.1720   13.8870 C.3    10  MET10       0.0427
     13  CG        29.1830    8.8960   12.4150 C.3    10  MET10       0.0599
     14  SD        30.6110    9.8240   11.8350 S.3    10  MET10      -0.1393
     15  CE        31.9290    9.0790   12.8040 C.3    10  MET10       0.0692
     16  N         28.1840    7.6170   16.6150 N.am   11  PHE11      -0.1960
     17  CA        28.2210    7.6050   18.0800 C.3    11  PHE11       0.1771
     18  C         26.9010    7.1910   18.7390 C.2    11  PHE11       0.2619
     19  O         26.6830    7.4640   19.9200 O.2    11  PHE11      -0.2715
     20  CB        28.7240    8.9550   18.6200 C.3    11  PHE11       0.0574
     21  CG        29.9650    9.4590   17.9250 C.ar   11  PHE11      -0.0200
     22  CD1       31.1680    8.7600   18.0220 C.ar   11  PHE11      -0.0042
     23  CD2       29.9310   10.6320   17.1680 C.ar   11  PHE11      -0.0042
     24  CE1       32.3250    9.2250   17.3810 C.ar   11  PHE11      -0.0003
     25  CE2       31.0820   11.1040   16.5180 C.ar   11  PHE11      -0.0003
     26  CZ        32.2770   10.4010   16.6270 C.ar   11  PHE11      -0.0000
     27  N         26.0460    6.5100   17.9730 N.am   12  ALA12      -0.1963
     28  CA        24.7580    5.9990   18.4570 C.3    12  ALA12       0.1728
     29  C         24.8420    4.5560   18.9680 C.2    12  ALA12       0.2617
     30  O         23.8980    4.0510   19.5860 O.2    12  ALA12      -0.2715
     31  CB        23.7040    6.0980   17.3530 C.3    12  ALA12       0.0334
     32  N         25.9610    3.8900   18.6830 N.am   13  GLY13      -0.1940
     33  CA        26.1710    2.5000   19.0720 C.3    13  GLY13       0.2014
     34  C         25.6570    1.4660   18.0810 C.2    13  GLY13       0.2639
     35  O         25.3390    0.3570   18.4780 O.2    13  GLY13      -0.2714
     36  N         25.5980    1.8120   16.7930 N.am   14  LYS14      -0.1963
     37  CA        24.9780    0.9370   15.7800 C.3    14  LYS14       0.1728
     38  C         25.7060   -0.4060   15.6490 C.2    14  LYS14       0.2617
     39  O         25.0810   -1.4600   15.6770 O.2    14  LYS14      -0.2715
     40  CB        24.9010    1.6110   14.4060 C.3    14  LYS14       0.0311
     41  CG        24.0720    2.9100   14.3270 C.3    14  LYS14       0.0038
     42  CD        23.9940    3.4210   12.8750 C.3    14  LYS14       0.0206
     43  CE        25.3370    3.8470   12.3130 C.3    14  LYS14       0.1093
     44  NZ        25.9490    4.9540   13.1120 N.3    14  LYS14      -0.1314
     45  N         27.0250   -0.3590   15.5110 N.am   15  THR15      -0.1937
     46  CA        27.8220   -1.5770   15.4210 C.3    15  THR15       0.2028
     47  C         27.7410   -2.4040   16.7140 C.2    15  THR15       0.2642
     48  O         27.6280   -3.6340   16.6610 O.2    15  THR15      -0.2714
     49  CB        29.2800   -1.2640   15.0340 C.3    15  THR15       0.1808
     50  OG1       29.2870   -0.5540   13.7900 O.3    15  THR15      -0.2208
     51  CG2       30.0910   -2.5520   14.8710 C.3    15  THR15       0.0379
     52  N         27.7850   -1.7240   17.8590 N.am   16  ALA16      -0.1977
     53  CA        27.5690   -2.3730   19.1590 C.3    16  ALA16       0.1597
     54  C         26.2580   -3.1730   19.1820 C.2    16  ALA16       0.2287
     55  O         26.2090   -4.2770   19.7340 O.2    16  ALA16      -0.2864
     56  CB        27.5770   -1.3520   20.2640 C.3    16  ALA16       0.0319
     57  N         33.9120   -3.8940   15.1260 N.3    44  GLN44      -0.1231
     58  CA        34.0820   -3.6240   16.5590 C.3    44  GLN44       0.1698
     59  C         33.3240   -2.3790   16.9990 C.2    44  GLN44       0.2593
     60  O         33.2070   -1.4150   16.2410 O.2    44  GLN44      -0.2718
     61  CB        35.5780   -3.4940   16.9230 C.3    44  GLN44       0.0381
     62  CG        36.3410   -2.4120   16.1570 C.3    44  GLN44       0.0905
     63  CD        37.8390   -2.4210   16.4430 C.2    44  GLN44       0.2608
     64  OE1       38.5490   -3.3540   16.0710 O.2    44  GLN44      -0.2717
     65  NE2       38.3220   -1.3740   17.1020 N.am   44  GLN44      -0.0878
     66  N         32.8020   -2.4090   18.2210 N.am   45  SER45      -0.1938
     67  CA        32.2290   -1.2140   18.8360 C.3    45  SER45       0.2055
     68  C         33.3570   -0.4270   19.5110 C.2    45  SER45       0.2642
     69  O         34.4930   -0.8900   19.5420 O.2    45  SER45      -0.2714
     70  CB        31.1770   -1.6000   19.8670 C.3    45  SER45       0.2130
     71  OG        31.7940   -1.9180   21.0960 O.3    45  SER45      -0.2179
     72  N         33.0380    0.7420   20.0700 N.am   46  ARG46      -0.1977
     73  CA        34.0540    1.6110   20.6760 C.3    46  ARG46       0.1597
     74  C         34.2980    1.3390   22.1620 C.2    46  ARG46       0.2287
     75  O         35.0320    2.0800   22.8270 O.2    46  ARG46      -0.2864
     76  CB        33.7190    3.0850   20.4280 C.3    46  ARG46       0.0334
     77  CG        33.6610    3.4240   18.9480 C.3    46  ARG46       0.0492
     78  CD        34.3520    4.7350   18.6010 C.3    46  ARG46       0.2205
     79  NE        34.4860    4.8700   17.1490 N.pl3  46  ARG46      -0.0865
     80  CZ        33.5980    5.4700   16.3610 C.cat  46  ARG46       0.5346
     81  NH1       32.5060    6.0190   16.8760 N.pl3  46  ARG46       0.1354
     82  NH2       33.8080    5.5300   15.0530 N.pl3  46  ARG46       0.1354
     83  N         27.6770   -4.6440    8.0830 N.3    81  ASP81      -0.1225
     84  CA        28.0080   -3.4010    8.7830 C.3    81  ASP81       0.1805
     85  C         28.4240   -2.3120    7.7900 C.2    81  ASP81       0.2597
     86  O         28.8260   -2.6170    6.6620 O.2    81  ASP81      -0.2718
     87  CB        29.1070   -3.6520    9.8190 C.3    81  ASP81       0.1424
     88  CG        29.1830   -2.5690   10.8800 C.2    81  ASP81       0.3668
     89  OD1       28.1960   -1.8340   11.0890 O.co2  81  ASP81      -0.2456
     90  OD2       30.2500   -2.4440   11.5030 O.co2  81  ASP81      -0.2456
     91  N         28.2970   -1.0540    8.2160 N.am   82  GLU82      -0.1979
     92  CA        28.6730    0.1350    7.4380 C.3    82  GLU82       0.1602
     93  C         28.0340    0.1190    6.0510 C.2    82  GLU82       0.2287
     94  O         28.6860    0.4260    5.0490 O.2    82  GLU82      -0.2864
     95  CB        30.2050    0.2860    7.3350 C.3    82  GLU82       0.0415
     96  CG        30.9480    0.3360    8.6740 C.3    82  GLU82       0.1163
     97  CD        30.8250    1.6770    9.3940 C.2    82  GLU82       0.3649
     98  OE1       30.2120    2.6210    8.8440 O.co2  82  GLU82      -0.2457
     99  OE2       31.3490    1.7890   10.5210 O.co2  82  GLU82      -0.2457
    100  N         23.5330   -2.8500    9.4660 N.3   107  SER107     -0.1217
    101  CA        23.8030   -1.6120   10.1740 C.3   107  SER107      0.1889
    102  C         24.4780   -0.5720    9.2870 C.2   107  SER107      0.2288
    103  O         25.3450   -0.9060    8.4780 O.2   107  SER107     -0.2866
    104  CB        24.6620   -1.8920   11.4110 C.3   107  SER107      0.2089
    105  OG        24.7740   -0.7230   12.2010 O.3   107  SER107     -0.2183
@<TRIPOS>BOND
     1    94    93    2
     2    93    92    1
     3    86    85    2
     4    95    92    1
     5    95    96    1
     6    92    91    1
     7    85    91   am
     8    85    84    1
     9    83    84    1
    10   103   102    2
    11    96    97    1
    12    84    87    1
    13    98    97   ar
    14   102   101    1
    15    97    99   ar
    16   100   101    1
    17    87    88    1
    18   101   104    1
    19    88    89   ar
    20    88    90   ar
    21   104   105    1
    22    14    13    1
    23    14    15    1
    24    43    42    1
    25    43    44    1
    26    13    12    1
    27    42    41    1
    28     2     1    1
    29     2     3    1
    30     2     5    1
    31     1     7    1
    32     8     3   am
    33     8     9    1
    34    50    49    1
    35    12     9    1
    36     3     4    2
    37     5     6    1
    38    41    40    1
    39     9    10    1
    40    40    37    1
    41     7     6    1
    42    51    49    1
    43    49    46    1
    44    82    80    1
    45    57    58    1
    46    46    45    1
    47    46    47    1
    48    45    38   am
    49    38    39    2
    50    38    37    1
    51    37    36    1
    52    10    11    2
    53    10    16   am
    54    64    63    2
    55    62    63    1
    56    62    61    1
    57    60    59    2
    58    80    81    1
    59    80    79    2
    60    63    65   am
    61    25    26   ar
    62    25    23   ar
    63    58    61    1
    64    58    59    1
    65    16    17    1
    66    26    24   ar
    67    48    47    2
    68    47    52   am
    69    36    34   am
    70    59    66   am
    71    79    78    1
    72    23    21   ar
    73    31    28    1
    74    24    22   ar
    75    52    53    1
    76    21    22   ar
    77    21    20    1
    78    27    28    1
    79    27    18   am
    80    17    20    1
    81    17    18    1
    82    34    35    2
    83    34    33    1
    84    66    67    1
    85    28    29    1
    86    78    77    1
    87    32    29   am
    88    32    33    1
    89    18    19    2
    90    67    68    1
    91    67    70    1
    92    77    76    1
    93    29    30    2
    94    53    54    1
    95    53    56    1
    96    54    55    2
    97    68    69    2
    98    68    72   am
    99    70    71    1
   100    72    73    1
   101    76    73    1
   102    73    74    1
   103    74    75    2
