@<TRIPOS>MOLECULE
tmp/2b8vA00.pdb
 230 217 0 0 0
SMALL
GASTEIGER

@<TRIPOS>ATOM
      1  N         34.5800   52.6410    6.8150 N.3    17  GLY17      -0.1210
      2  CA        33.6110   51.5940    7.0780 C.3    17  GLY17       0.1956
      3  C         33.8230   50.4410    6.1180 C.2    17  GLY17       0.2612
      4  O         32.8820   49.9670    5.4830 O.2    17  GLY17      -0.2717
      5  N         35.0670   49.9830    6.0200 N.am   18  GLN18      -0.1965
      6  CA        35.4150   48.8990    5.1120 C.3    18  GLN18       0.1733
      7  C         35.8220   47.5970    5.7970 C.2    18  GLN18       0.2616
      8  O         36.8020   46.9640    5.4080 O.2    18  GLN18      -0.2715
      9  CB        36.5290   49.3720    4.1730 C.3    18  GLN18       0.0408
     10  CG        36.0700   50.4340    3.1730 C.3    18  GLN18       0.0908
     11  CD        37.1980   51.3150    2.6570 C.2    18  GLN18       0.2608
     12  OE1       37.0580   51.9750    1.6280 O.2    18  GLN18      -0.2717
     13  NE2       38.3140   51.3440    3.3780 N.am   18  GLN18      -0.0878
     14  N         35.0630   47.2000    6.8140 N.am   19  GLY19      -0.1955
     15  CA        35.3510   45.9630    7.5170 C.3    19  GLY19       0.1869
     16  C         36.2080   46.0930    8.7630 C.2    19  GLY19       0.2309
     17  O         36.7810   47.1470    9.0380 O.2    19  GLY19      -0.2863
     18  N         40.7730   40.4300    7.4900 N.3    36  LEU36      -0.1245
     19  CA        39.3640   40.7350    7.7040 C.3    36  LEU36       0.1561
     20  C         38.6610   39.5870    8.4340 C.2    36  LEU36       0.2260
     21  O         38.8050   38.4280    8.0540 O.2    36  LEU36      -0.2867
     22  CB        38.6820   40.9650    6.3580 C.3    36  LEU36       0.0270
     23  CG        37.1770   41.2250    6.4100 C.3    36  LEU36       0.0019
     24  CD1       36.8850   42.6690    6.7880 C.3    36  LEU36       0.0001
     25  CD2       36.6020   40.9270    5.0570 C.3    36  LEU36       0.0001
     26  N         35.6070   37.5000    9.0640 N.3    38  ASP38      -0.1239
     27  CA        34.3730   37.2110    8.3500 C.3    38  ASP38       0.1674
     28  C         33.6520   35.9480    8.7990 C.2    38  ASP38       0.2266
     29  O         34.0820   34.8420    8.4870 O.2    38  ASP38      -0.2867
     30  CB        34.6850   37.1320    6.8520 C.3    38  ASP38       0.1410
     31  CG        33.4700   36.7990    6.0190 C.2    38  ASP38       0.3668
     32  OD1       32.3490   37.1510    6.4420 O.co2  38  ASP38      -0.2456
     33  OD2       33.6380   36.2040    4.9330 O.co2  38  ASP38      -0.2456
     34  N         30.9290   35.1090    7.7000 N.3    40  GLY40      -0.1210
     35  CA        30.0850   34.7410    6.5700 C.3    40  GLY40       0.1956
     36  C         30.7360   33.8470    5.5170 C.2    40  GLY40       0.2612
     37  O         30.1800   33.6530    4.4300 O.2    40  GLY40      -0.2717
     38  N         31.9120   33.3060    5.8250 N.am   41  SER41      -0.1952
     39  CA        32.6230   32.4070    4.9160 C.3    41  SER41       0.1924
     40  C         33.5310   31.5160    5.7590 C.2    41  SER41       0.2314
     41  O         33.6290   31.7070    6.9700 O.2    41  SER41      -0.2863
     42  CB        33.4430   33.1860    3.8790 C.3    41  SER41       0.2116
     43  OG        34.5300   33.8790    4.4620 O.3    41  SER41      -0.2180
     44  N         32.2660   35.5480   -3.6460 N.3    77  TYR77      -0.1227
     45  CA        31.4520   36.0310   -2.5370 C.3    77  TYR77       0.1736
     46  C         30.3070   36.8120   -3.1560 C.2    77  TYR77       0.2596
     47  O         30.2180   36.9220   -4.3810 O.2    77  TYR77      -0.2718
     48  CB        32.2660   36.9670   -1.6360 C.3    77  TYR77       0.0548
     49  CG        33.4880   36.3450   -0.9970 C.ar   77  TYR77      -0.0200
     50  CD1       33.4060   35.6900    0.2330 C.ar   77  TYR77      -0.0009
     51  CD2       34.7350   36.4340   -1.6150 C.ar   77  TYR77      -0.0009
     52  CE1       34.5500   35.1440    0.8370 C.ar   77  TYR77       0.0417
     53  CE2       35.8730   35.8920   -1.0270 C.ar   77  TYR77       0.0417
     54  CZ        35.7780   35.2530    0.1970 C.ar   77  TYR77       0.1957
     55  OH        36.9190   34.7460    0.7780 O.3    77  TYR77      -0.2866
     56  N         29.4290   37.3510   -2.3160 N.am   78  THR78      -0.1939
     57  CA        28.3190   38.1530   -2.8140 C.3    78  THR78       0.2028
     58  C         28.9540   39.3030   -3.5890 C.2    78  THR78       0.2642
     59  O         28.4560   39.7280   -4.6290 O.2    78  THR78      -0.2714
     60  CB        27.4870   38.7480   -1.6610 C.3    78  THR78       0.1808
     61  OG1       27.0900   37.7040   -0.7640 O.3    78  THR78      -0.2208
     62  CG2       26.2380   39.4410   -2.2110 C.3    78  THR78       0.0379
     63  N         30.0690   39.7910   -3.0570 N.am   79  GLN79      -0.1976
     64  CA        30.8220   40.8800   -3.6500 C.3    79  GLN79       0.1601
     65  C         32.2660   40.4460   -3.8760 C.2    79  GLN79       0.2287
     66  O         33.0000   40.1970   -2.9160 O.2    79  GLN79      -0.2864
     67  CB        30.7880   42.0860   -2.7120 C.3    79  GLN79       0.0394
     68  CG        31.6680   43.2450   -3.1250 C.3    79  GLN79       0.0908
     69  CD        31.5590   44.4060   -2.1580 C.2    79  GLN79       0.2608
     70  OE1       32.5410   44.8040   -1.5270 O.2    79  GLN79      -0.2717
     71  NE2       30.3570   44.9510   -2.0310 N.am   79  GLN79      -0.0878
     72  N         37.5820   42.5750   -7.7900 N.3   113  LYS113     -0.1231
     73  CA        36.7440   43.3640   -6.8960 C.3   113  LYS113      0.1693
     74  C         36.6640   42.7980   -5.4820 C.2   113  LYS113      0.2592
     75  O         35.6140   42.8590   -4.8370 O.2   113  LYS113     -0.2718
     76  CB        35.3340   43.4820   -7.4780 C.3   113  LYS113      0.0285
     77  CG        35.2840   44.1180   -8.8600 C.3   113  LYS113      0.0035
     78  CD        33.8570   44.1550   -9.3770 C.3   113  LYS113      0.0206
     79  CE        33.7890   44.7050  -10.7890 C.3   113  LYS113      0.1093
     80  NZ        32.3910   44.6880  -11.3050 N.3   113  LYS113     -0.1314
     81  N         37.7730   42.2470   -5.0030 N.am  114  PHE114     -0.1976
     82  CA        37.8230   41.6890   -3.6600 C.3   114  PHE114      0.1639
     83  C         38.5060   42.6870   -2.7310 C.2   114  PHE114      0.2290
     84  O         37.8760   43.2360   -1.8260 O.2   114  PHE114     -0.2864
     85  CB        38.5850   40.3600   -3.6590 C.3   114  PHE114      0.0560
     86  CG        38.6850   39.7230   -2.3020 C.ar  114  PHE114     -0.0200
     87  CD1       37.5410   39.3010   -1.6300 C.ar  114  PHE114     -0.0042
     88  CD2       39.9250   39.5520   -1.6920 C.ar  114  PHE114     -0.0042
     89  CE1       37.6300   38.7140   -0.3610 C.ar  114  PHE114     -0.0003
     90  CE2       40.0290   38.9680   -0.4270 C.ar  114  PHE114     -0.0003
     91  CZ        38.8800   38.5480    0.2390 C.ar  114  PHE114     -0.0000
     92  N         39.9240   46.0490   -1.3070 N.3   116  ILE116     -0.1245
     93  CA        39.3760   47.3910   -1.3490 C.3   116  ILE116      0.1561
     94  C         40.4420   48.4340   -1.0630 C.2   116  ILE116      0.2260
     95  O         41.1740   48.3450   -0.0750 O.2   116  ILE116     -0.2867
     96  CB        38.2300   47.5170   -0.3320 C.3   116  ILE116      0.0252
     97  CG1       37.1490   46.4960   -0.6830 C.3   116  ILE116      0.0019
     98  CG2       37.6600   48.9370   -0.3300 C.3   116  ILE116      0.0019
     99  CD1       36.0030   46.4750    0.2660 C.3   116  ILE116      0.0001
    100  N         43.4210   46.0150    4.8830 N.3   121  TRP121     -0.1241
    101  CA        43.5100   44.5880    5.1660 C.3   121  TRP121      0.1605
    102  C         44.0070   43.8620    3.9130 C.2   121  TRP121      0.2264
    103  O         43.7510   44.2890    2.7830 O.2   121  TRP121     -0.2867
    104  CB        42.1900   43.9880    5.7020 C.3   121  TRP121      0.0550
    105  CG        40.9260   44.2820    4.9520 C.ar  121  TRP121      0.0003
    106  CD1       40.0240   45.2710    5.2220 C.ar  121  TRP121      0.0946
    107  CD2       40.3960   43.5450    3.8440 C.ar  121  TRP121      0.0152
    108  NE1       38.9580   45.1910    4.3540 N.ar  121  TRP121     -0.2442
    109  CE2       39.1630   44.1420    3.4960 C.ar  121  TRP121      0.0810
    110  CE3       40.8440   42.4360    3.1120 C.ar  121  TRP121      0.0012
    111  CZ2       38.3680   43.6660    2.4440 C.ar  121  TRP121      0.0191
    112  CZ3       40.0520   41.9620    2.0630 C.ar  121  TRP121      0.0001
    113  CH2       38.8290   42.5790    1.7420 C.ar  121  TRP121      0.0015
    114  N         41.5370   37.4990    4.4840 N.3   124  ILE124     -0.1245
    115  CA        40.2490   37.2610    5.1080 C.3   124  ILE124      0.1561
    116  C         40.2630   35.9790    5.9390 C.2   124  ILE124      0.2260
    117  O         40.8670   34.9770    5.5530 O.2   124  ILE124     -0.2867
    118  CB        39.1450   37.1740    4.0180 C.3   124  ILE124      0.0252
    119  CG1       37.7680   36.9730    4.6560 C.3   124  ILE124      0.0019
    120  CG2       39.4640   36.0370    3.0490 C.3   124  ILE124      0.0019
    121  CD1       36.6320   37.2410    3.6930 C.3   124  ILE124      0.0001
    122  N         26.5930   28.1860    7.7610 N.3   191  TYR191     -0.1241
    123  CA        26.7670   29.6150    7.9830 C.3   191  TYR191      0.1605
    124  C         26.3460   29.6440    9.4490 C.2   191  TYR191      0.2264
    125  O         25.9810   28.6080   10.0030 O.2   191  TYR191     -0.2867
    126  CB        25.7430   30.4240    7.1930 C.3   191  TYR191      0.0534
    127  CG        26.0320   30.5170    5.7280 C.ar  191  TYR191     -0.0201
    128  CD1       27.0810   31.3050    5.2600 C.ar  191  TYR191     -0.0009
    129  CD2       25.2630   29.8180    4.8020 C.ar  191  TYR191     -0.0009
    130  CE1       27.3590   31.3950    3.9040 C.ar  191  TYR191      0.0417
    131  CE2       25.5320   29.9000    3.4440 C.ar  191  TYR191      0.0417
    132  CZ        26.5810   30.6890    3.0030 C.ar  191  TYR191      0.1957
    133  OH        26.8590   30.7650    1.6590 O.3   191  TYR191     -0.2866
    134  N         17.2060   31.4630    4.2340 N.3   217  LYS217     -0.1245
    135  CA        17.9840   31.4050    5.4760 C.3   217  LYS217      0.1561
    136  C         18.2130   32.7900    6.0860 C.2   217  LYS217      0.2260
    137  O         17.9690   33.8080    5.4450 O.2   217  LYS217     -0.2867
    138  CB        19.3540   30.7610    5.2170 C.3   217  LYS217      0.0271
    139  CG        20.2430   31.5710    4.2760 C.3   217  LYS217      0.0035
    140  CD        21.5970   30.9130    4.0590 C.3   217  LYS217      0.0206
    141  CE        22.4190   31.6700    3.0310 C.3   217  LYS217      0.1093
    142  NZ        21.7690   31.6440    1.6860 N.3   217  LYS217     -0.1314
    143  N         21.3400   34.6420    8.4670 N.3   219  ILE219     -0.1245
    144  CA        22.6690   34.4020    9.0300 C.3   219  ILE219      0.1561
    145  C         23.2980   35.6270    9.6770 C.2   219  ILE219      0.2260
    146  O         22.9050   36.7590    9.4010 O.2   219  ILE219     -0.2867
    147  CB        23.6520   33.9060    7.9380 C.3   219  ILE219      0.0252
    148  CG1       23.9140   35.0350    6.9330 C.3   219  ILE219      0.0019
    149  CG2       23.0810   32.6870    7.2200 C.3   219  ILE219      0.0019
    150  CD1       25.0120   34.7260    5.9240 C.3   219  ILE219      0.0001
    151  N         26.5890   37.6320    9.8040 N.3   221  ASP221     -0.1225
    152  CA        27.7510   37.7660    8.9300 C.3   221  ASP221      0.1805
    153  C         28.5360   39.0660    9.1100 C.2   221  ASP221      0.2598
    154  O         28.1240   40.1220    8.6270 O.2   221  ASP221     -0.2718
    155  CB        27.2280   37.6300    7.4930 C.3   221  ASP221      0.1424
    156  CG        28.3120   37.6980    6.4390 C.2   221  ASP221      0.3668
    157  OD1       29.5130   37.7750    6.7680 O.co2 221  ASP221     -0.2456
    158  OD2       27.9310   37.6660    5.2500 O.co2 221  ASP221     -0.2456
    159  N         29.6760   38.9750    9.7940 N.am  222  SER222     -0.1938
    160  CA        30.5360   40.1300   10.0450 C.3   222  SER222      0.2055
    161  C         31.2480   40.6200    8.7830 C.2   222  SER222      0.2644
    162  O         31.8440   41.7010    8.7750 O.2   222  SER222     -0.2714
    163  CB        31.5820   39.7830   11.1080 C.3   222  SER222      0.2130
    164  OG        32.5040   38.8280   10.6100 O.3   222  SER222     -0.2179
    165  N         31.1890   39.8260    7.7190 N.am  223  GLY223     -0.1939
    166  CA        31.8300   40.2080    6.4710 C.3   223  GLY223      0.2014
    167  C         30.9260   40.9890    5.5270 C.2   223  GLY223      0.2640
    168  O         31.3690   41.4470    4.4710 O.2   223  GLY223     -0.2714
    169  N         29.6570   41.1350    5.8930 N.am  224  THR224     -0.1936
    170  CA        28.7050   41.8770    5.0680 C.3   224  THR224      0.2028
    171  C         28.3730   43.1690    5.8050 C.2   224  THR224      0.2643
    172  O         28.1120   43.1610    7.0060 O.2   224  THR224     -0.2714
    173  CB        27.4280   41.0470    4.8140 C.3   224  THR224      0.1808
    174  OG1       27.7530   39.9350    3.9660 O.3   224  THR224     -0.2208
    175  CG2       26.3500   41.8910    4.1390 C.3   224  THR224      0.0379
    176  N         28.4040   44.2850    5.0860 N.am  225  THR225     -0.1936
    177  CA        28.1380   45.5780    5.6950 C.3   225  THR225      0.2028
    178  C         26.6970   45.7900    6.1610 C.2   225  THR225      0.2642
    179  O         26.4400   46.0920    7.3260 O.2   225  THR225     -0.2714
    180  CB        28.4850   46.7200    4.7130 C.3   225  THR225      0.1808
    181  OG1       29.8340   46.5750    4.2600 O.3   225  THR225     -0.2208
    182  CG2       28.3220   48.0680    5.3900 C.3   225  THR225      0.0379
    183  N         25.7600   45.6160    5.2390 N.am  226  ASN226     -0.1971
    184  CA        24.3530   45.8630    5.5060 C.3   226  ASN226      0.1688
    185  C         23.5430   44.8030    6.2250 C.2   226  ASN226      0.2292
    186  O         24.0080   43.6980    6.5120 O.2   226  ASN226     -0.2864
    187  CB        23.6210   46.1260    4.1880 C.3   226  ASN226      0.1181
    188  CG        24.1910   47.2920    3.4080 C.2   226  ASN226      0.2629
    189  OD1       25.1010   47.9810    3.8570 O.2   226  ASN226     -0.2716
    190  ND2       23.6400   47.5190    2.2200 N.am  226  ASN226     -0.0877
    191  N         20.7510   42.8360    5.2140 N.3   228  ARG228     -0.1245
    192  CA        20.1360   42.4900    3.9440 C.3   228  ARG228      0.1563
    193  C         18.8870   41.6860    4.2670 C.2   228  ARG228      0.2260
    194  O         18.9180   40.8190    5.1410 O.2   228  ARG228     -0.2867
    195  CB        21.1220   41.6780    3.0970 C.3   228  ARG228      0.0307
    196  CG        22.4970   42.3400    2.9700 C.3   228  ARG228      0.0489
    197  CD        23.3820   41.6030    1.9810 C.3   228  ARG228      0.2205
    198  NE        22.7610   41.5760    0.6610 N.pl3 228  ARG228     -0.0865
    199  CZ        22.8320   40.5550   -0.1870 C.cat 228  ARG228      0.5346
    200  NH1       23.5050   39.4590    0.1370 N.pl3 228  ARG228      0.1354
    201  NH2       22.2050   40.6220   -1.3570 N.pl3 228  ARG228      0.1354
    202  N         24.4900   56.7510    4.0570 N.3   309  LYS309     -0.1245
    203  CA        23.8780   55.8190    3.1250 C.3   309  LYS309      0.1561
    204  C         22.9460   54.9120    3.9190 C.2   309  LYS309      0.2260
    205  O         23.3020   54.4430    5.0010 O.2   309  LYS309     -0.2867
    206  CB        24.9430   54.9640    2.4350 C.3   309  LYS309      0.0271
    207  CG        24.3650   53.8840    1.5290 C.3   309  LYS309      0.0035
    208  CD        25.4390   52.9380    1.0170 C.3   309  LYS309      0.0206
    209  CE        24.8260   51.8030    0.2130 C.3   309  LYS309      0.1093
    210  NZ        25.8500   50.8310   -0.2650 N.3   309  LYS309     -0.1314
    211  N         19.4350   46.6480    2.7840 N.3   313  SER313     -0.1217
    212  CA        19.2200   46.3740    1.3680 C.3   313  SER313      0.1889
    213  C         18.5440   45.0380    1.0760 C.2   313  SER313      0.2288
    214  O         18.3250   44.2310    1.9730 O.2   313  SER313     -0.2866
    215  CB        20.5530   46.4730    0.6140 C.3   313  SER313      0.2089
    216  OG        21.5350   45.6150    1.1760 O.3   313  SER313     -0.2183
    217  N         18.9900   35.7640   -1.2630 N.3   317  THR317     -0.1218
    218  CA        19.5780   34.5960   -0.6110 C.3   317  THR317      0.1862
    219  C         19.3650   34.5930    0.9030 C.2   317  THR317      0.2287
    220  O         20.1920   34.0700    1.6560 O.2   317  THR317     -0.2866
    221  CB        21.0900   34.5160   -0.8800 C.3   317  THR317      0.1770
    222  OG1       21.7280   35.6940   -0.3690 O.3   317  THR317     -0.2211
    223  CG2       21.3640   34.4000   -2.3790 C.3   317  THR317      0.0375
    224  N         20.6120   38.6750    5.9410 N.3   320  VAL320     -0.1245
    225  CA        22.0100   38.7260    6.3290 C.3   320  VAL320      0.1561
    226  C         22.1590   39.8110    7.3850 C.2   320  VAL320      0.2260
    227  O         22.0280   41.0000    7.0960 O.2   320  VAL320     -0.2867
    228  CB        22.9360   39.0560    5.1290 C.3   320  VAL320      0.0252
    229  CG1       24.3950   39.0280    5.5780 C.3   320  VAL320      0.0019
    230  CG2       22.7160   38.0500    4.0050 C.3   320  VAL320      0.0019
@<TRIPOS>BOND
     1    80    79    1
     2    79    78    1
     3    78    77    1
     4    77    76    1
     5    72    73    1
     6    76    73    1
     7    73    74    1
     8    74    81   am
     9    74    75    2
    10    81    82    1
    11    59    58    2
    12    47    46    2
    13    65    64    1
    14    65    66    2
    15    82    85    1
    16    82    83    1
    17    85    86    1
    18    64    63    1
    19    64    67    1
    20    44    45    1
    21    58    63   am
    22    58    57    1
    23    46    45    1
    24    46    56   am
    25    68    67    1
    26    68    69    1
    27    57    56    1
    28    57    60    1
    29    83    84    2
    30    45    48    1
    31   223   221    1
    32    86    88   ar
    33    86    87   ar
    34    62    60    1
    35    69    71   am
    36    69    70    2
    37    88    90   ar
    38    60    61    1
    39    48    49    1
    40    87    89   ar
    41    51    53   ar
    42    51    49   ar
    43   201   199    1
    44    93    92    1
    45    93    94    1
    46    93    96    1
    47   217   218    1
    48    94    95    2
    49    53    54   ar
    50    49    50   ar
    51   221   218    1
    52   221   222    1
    53    97    96    1
    54    97    99    1
    55   218   219    1
    56    90    91   ar
    57    89    91   ar
    58    96    98    1
    59   210   209    1
    60   199   200    1
    61   199   198    2
    62    54    55    1
    63    54    52   ar
    64   209   208    1
    65    50    52   ar
    66   215   216    1
    67   215   212    1
    68   198   197    1
    69   219   220    2
    70   208   207    1
    71   213   212    1
    72   213   214    2
    73   212   211    1
    74   207   206    1
    75    12    11    2
    76   133   132    1
    77   142   141    1
    78   113   112   ar
    79   113   111   ar
    80   197   196    1
    81   112   110   ar
    82   190   188   am
    83   206   203    1
    84   111   109   ar
    85    11    10    1
    86    11    13   am
    87   103   102    2
    88   196   195    1
    89   132   131   ar
    90   132   130   ar
    91   141   140    1
    92   120   118    1
    93   195   192    1
    94   110   107   ar
    95   203   204    1
    96   203   202    1
    97    10     9    1
    98   188   189    2
    99   188   187    1
   100   131   129   ar
   101   109   107   ar
   102   109   108   ar
   103   121   119    1
   104   107   105   ar
   105    42    43    1
   106    42    39    1
   107   130   128   ar
   108   102   101    1
   109   204   205    2
   110   192   193    1
   111   192   191    1
   112   174   173    1
   113   230   228    1
   114   118   119    1
   115   118   115    1
   116   140   139    1
   117   175   173    1
   118     9     6    1
   119   187   184    1
   120   134   135    1
   121   181   180    1
   122   193   194    2
   123   139   138    1
   124   108   106   ar
   125    37    36    2
   126   168   167    2
   127   114   115    1
   128   180   182    1
   129   180   177    1
   130   129   127   ar
   131   173   170    1
   132   100   101    1
   133    39    40    1
   134    39    38    1
   135    33    31   ar
   136   105   106   ar
   137   105   104    1
   138    25    23    1
   139   170   171    1
   140   170   169    1
   141   176   177    1
   142   176   171   am
   143   115   116    1
   144     6     7    1
   145     6     5    1
   146   228   229    1
   147   228   225    1
   148   101   104    1
   149   138   135    1
   150   183   184    1
   151   183   178   am
   152   158   156   ar
   153   128   127   ar
   154     8     7    2
   155   137   136    2
   156   135   136    1
   157     4     3    2
   158   184   185    1
   159    36    38   am
   160    36    35    1
   161   167   169   am
   162   167   166    1
   163   117   116    2
   164   177   178    1
   165   127   126    1
   166    40    41    2
   167     7    14   am
   168   171   172    2
   169   150   148    1
   170   224   225    1
   171    31    32   ar
   172    31    30    1
   173     5     3   am
   174     3     2    1
   175   178   179    2
   176   185   186    2
   177   225   226    1
   178    22    23    1
   179    22    19    1
   180    23    24    1
   181   156   157   ar
   182   156   155    1
   183   166   165    1
   184    35    34    1
   185    14    15    1
   186     1     2    1
   187    30    27    1
   188   148   147    1
   189   227   226    2
   190   126   123    1
   191   149   147    1
   192    18    19    1
   193   155   152    1
   194    15    16    1
   195    19    20    1
   196   165   161   am
   197   122   123    1
   198   147   144    1
   199   123   124    1
   200    21    20    2
   201    27    28    1
   202    27    26    1
   203   143   144    1
   204    29    28    2
   205   154   153    2
   206    16    17    2
   207   162   161    2
   208   161   160    1
   209   152   153    1
   210   152   151    1
   211   144   145    1
   212   153   159   am
   213   146   145    2
   214   124   125    2
   215   159   160    1
   216   160   163    1
   217   164   163    1
