@<TRIPOS>MOLECULE
tmp/2b8wB00.pdb
 193 187 0 0 0
SMALL
GASTEIGER

@<TRIPOS>ATOM
      1  N         77.0700   33.2850    5.1550 N.3    42  TYR42      -0.1227
      2  CA        76.9720   34.4840    5.9880 C.3    42  TYR42       0.1736
      3  C         76.3880   34.1910    7.3670 C.2    42  TYR42       0.2595
      4  O         75.8410   33.1090    7.5880 O.2    42  TYR42      -0.2718
      5  CB        76.2040   35.6120    5.2690 C.3    42  TYR42       0.0548
      6  CG        74.6770   35.5550    5.3700 C.ar   42  TYR42      -0.0200
      7  CD1       73.9460   36.7340    5.5050 C.ar   42  TYR42      -0.0009
      8  CD2       73.9800   34.4150    4.9320 C.ar   42  TYR42      -0.0009
      9  CE1       72.5760   36.7710    5.2700 C.ar   42  TYR42       0.0417
     10  CE2       72.5750   34.4250    4.8220 C.ar   42  TYR42       0.0417
     11  CZ        71.8780   35.5970    5.0780 C.ar   42  TYR42       0.1957
     12  OH        70.5090   35.6540    4.8810 O.3    42  TYR42      -0.2866
     13  N         76.8190   34.9890    8.3430 N.am   43  ARG43      -0.1966
     14  CA        76.3780   34.8480    9.7280 C.3    43  ARG43       0.1729
     15  C         76.8370   33.5380   10.3690 C.2    43  ARG43       0.2617
     16  O         76.1850   33.0420   11.2880 O.2    43  ARG43      -0.2715
     17  CB        74.8570   34.9990    9.8340 C.3    43  ARG43       0.0348
     18  CG        74.2730   36.0980    8.9490 C.3    43  ARG43       0.0492
     19  CD        74.2790   37.4590    9.6440 C.3    43  ARG43       0.2205
     20  NE        75.6160   38.0480    9.7130 N.pl3  43  ARG43      -0.0865
     21  CZ        76.0240   38.8560   10.6880 C.cat  43  ARG43       0.5346
     22  NH1       75.2360   39.0730   11.7350 N.pl3  43  ARG43       0.1354
     23  NH2       77.2720   39.3040   10.7020 N.pl3  43  ARG43       0.1354
     24  N         78.0690   33.1320   10.0640 N.am   44  THR44      -0.1937
     25  CA        78.6250   31.8950   10.6170 C.3    44  THR44       0.2028
     26  C         79.8590   32.0960   11.5020 C.2    44  THR44       0.2643
     27  O         80.5690   31.1370   11.7910 O.2    44  THR44      -0.2714
     28  CB        78.9690   30.8710    9.5120 C.3    44  THR44       0.1808
     29  OG1       79.9030   31.4480    8.5900 O.3    44  THR44      -0.2208
     30  CG2       77.7130   30.4430    8.7620 C.3    44  THR44       0.0379
     31  N         80.1000   33.3240   11.9560 N.am   45  GLY45      -0.1939
     32  CA        81.1650   33.5900   12.9320 C.3    45  GLY45       0.2014
     33  C         82.5660   33.7600   12.3550 C.2    45  GLY45       0.2639
     34  O         83.5520   33.7740   13.0940 O.2    45  GLY45      -0.2714
     35  N         82.6510   34.0060   11.0500 N.am   46  LYS46      -0.1963
     36  CA        83.9430   34.1440   10.3730 C.3    46  LYS46       0.1728
     37  C         84.7600   35.3090   10.9400 C.2    46  LYS46       0.2617
     38  O         85.9560   35.1690   11.2000 O.2    46  LYS46      -0.2715
     39  CB        83.7520   34.3270    8.8610 C.3    46  LYS46       0.0311
     40  CG        83.0080   33.1920    8.1700 C.3    46  LYS46       0.0038
     41  CD        83.0740   33.3310    6.6550 C.3    46  LYS46       0.0206
     42  CE        82.2650   34.5260    6.1780 C.3    46  LYS46       0.1093
     43  NZ        80.8680   34.4720    6.7000 N.3    46  LYS46      -0.1314
     44  N         84.1440   36.4860   11.0210 N.am   47  SER47      -0.1936
     45  CA        84.8750   37.6900   11.4120 C.3    47  SER47       0.2055
     46  C         85.4630   37.5410   12.8080 C.2    47  SER47       0.2643
     47  O         86.5290   38.0820   13.1000 O.2    47  SER47      -0.2714
     48  CB        83.9670   38.9190   11.3600 C.3    47  SER47       0.2130
     49  OG        83.7300   39.3160   10.0180 O.3    47  SER47      -0.2179
     50  N         84.7470   36.8220   13.6700 N.am   48  TYR48      -0.1973
     51  CA        85.1660   36.5890   15.0580 C.3    48  TYR48       0.1639
     52  C         86.4210   35.7190   15.1510 C.2    48  TYR48       0.2290
     53  O         87.3030   35.9690   15.9750 O.2    48  TYR48      -0.2864
     54  CB        84.0280   35.9290   15.8510 C.3    48  TYR48       0.0560
     55  CG        84.3110   35.7840   17.3350 C.ar   48  TYR48      -0.0198
     56  CD1       84.4920   36.9020   18.1380 C.ar   48  TYR48      -0.0009
     57  CD2       84.3150   34.5290   17.9490 C.ar   48  TYR48      -0.0009
     58  CE1       84.6840   36.7840   19.5080 C.ar   48  TYR48       0.0417
     59  CE2       84.4810   34.4020   19.3300 C.ar   48  TYR48       0.0417
     60  CZ        84.7870   35.5260   20.0810 C.ar   48  TYR48       0.1957
     61  OH        84.9240   35.4110   21.4520 O.3    48  TYR48      -0.2866
     62  N         81.4860   42.6050   13.7490 N.3    62  LEU62      -0.1231
     63  CA        80.7630   41.3330   13.7990 C.3    62  LEU62       0.1693
     64  C         79.3580   41.4790   13.2150 C.2    62  LEU62       0.2593
     65  O         79.0350   40.8640   12.1990 O.2    62  LEU62      -0.2718
     66  CB        80.6630   40.8330   15.2470 C.3    62  LEU62       0.0284
     67  CG        81.9720   40.5600   15.9960 C.3    62  LEU62       0.0019
     68  CD1       81.7090   39.8240   17.3030 C.3    62  LEU62       0.0001
     69  CD2       82.9480   39.7800   15.1290 C.3    62  LEU62       0.0001
     70  N         78.5920   42.4190   13.7700 N.am   63  GLY63      -0.1942
     71  CA        77.1700   42.5730   13.4560 C.3    63  GLY63       0.2014
     72  C         76.3140   41.5470   14.1730 C.2    63  GLY63       0.2639
     73  O         76.6580   40.3700   14.2030 O.2    63  GLY63      -0.2714
     74  N         75.2560   41.9950   14.8420 N.am   64  SER64      -0.1949
     75  CA        74.5260   41.1230   15.7610 C.3    64  SER64       0.1924
     76  C         73.1360   40.7420   15.2500 C.2    64  SER64       0.2314
     77  O         72.3600   40.1140   15.9700 O.2    64  SER64      -0.2863
     78  CB        74.4110   41.7740   17.1380 C.3    64  SER64       0.2116
     79  OG        73.6150   42.9480   17.0690 O.3    64  SER64      -0.2180
     80  N         73.6620   40.5680    6.8040 N.3    68  SER68      -0.1202
     81  CA        75.0960   40.5450    6.5350 C.3    68  SER68       0.2020
     82  C         75.7810   41.8100    7.0470 C.2    68  SER68       0.2619
     83  O         75.1950   42.8940    7.0330 O.2    68  SER68      -0.2717
     84  CB        75.3300   40.4160    5.0330 C.3    68  SER68       0.2103
     85  OG        74.5870   41.4020    4.3330 O.3    68  SER68      -0.2182
     86  N         77.0220   41.6660    7.4990 N.am   69  HIS69      -0.1961
     87  CA        77.7620   42.7940    8.0410 C.3    69  HIS69       0.1787
     88  C         79.0780   43.0470    7.3010 C.2    69  HIS69       0.2620
     89  O         79.2650   44.1190    6.7270 O.2    69  HIS69      -0.2715
     90  CB        77.9960   42.6190    9.5420 C.3    69  HIS69       0.0785
     91  CG        78.4450   43.8700   10.2280 C.ar   69  HIS69       0.0821
     92  ND1       77.5790   44.9030   10.5220 N.ar   69  HIS69      -0.2267
     93  CD2       79.6900   44.3520   10.4570 C.ar   69  HIS69       0.1154
     94  CE1       78.2670   45.9340   10.9800 C.ar   69  HIS69       0.1986
     95  NE2       79.5450   45.6030   11.0050 N.ar   69  HIS69      -0.2212
     96  N         79.9140   42.0160    7.1670 N.am   70  THR70      -0.1951
     97  CA        81.1220   42.1500    6.3390 C.3    70  THR70       0.1897
     98  C         80.7430   42.2200    4.8660 C.2    70  THR70       0.2313
     99  O         79.9930   41.3750    4.3780 O.2    70  THR70      -0.2863
    100  CB        82.1080   40.9790    6.5420 C.3    70  THR70       0.1794
    101  OG1       82.3160   40.7620    7.9410 O.3    70  THR70      -0.2208
    102  CG2       83.4510   41.2960    5.8910 C.3    70  THR70       0.0378
    103  N         86.0530   38.0400    4.6270 N.3    93  THR93      -0.1218
    104  CA        85.2410   38.1600    3.4150 C.3    93  THR93       0.1862
    105  C         83.7470   38.3370    3.7200 C.2    93  THR93       0.2287
    106  O         83.2520   37.8710    4.7480 O.2    93  THR93      -0.2866
    107  CB        85.4320   36.9370    2.4880 C.3    93  THR93       0.1770
    108  OG1       84.9160   35.7630    3.1340 O.3    93  THR93      -0.2211
    109  CG2       86.9120   36.7270    2.1680 C.3    93  THR93       0.0375
    110  N         80.1900   37.0760    3.7100 N.3    95  GLY95      -0.1225
    111  CA        79.5510   35.7560    3.7480 C.3    95  GLY95       0.1811
    112  C         78.7890   35.3990    2.4780 C.2    95  GLY95       0.2280
    113  O         78.1100   36.2470    1.9000 O.2    95  GLY95      -0.2866
    114  N         78.7980   25.7060    9.6840 N.3   126  ILE126     -0.1245
    115  CA        78.1710   25.3560   10.9670 C.3   126  ILE126      0.1561
    116  C         77.7660   23.8780   10.9990 C.2   126  ILE126      0.2260
    117  O         77.2320   23.3650   10.0130 O.2   126  ILE126     -0.2867
    118  CB        76.9260   26.2400   11.2470 C.3   126  ILE126      0.0252
    119  CG1       77.3530   27.6460   11.6860 C.3   126  ILE126      0.0019
    120  CG2       76.0280   25.5930   12.2940 C.3   126  ILE126      0.0019
    121  CD1       76.2210   28.6430   11.7300 C.3   126  ILE126      0.0001
    122  N         81.7720   25.0430   13.0600 N.3   164  ARG164     -0.1231
    123  CA        81.3230   25.8800   14.1650 C.3   164  ARG164      0.1694
    124  C         80.1060   25.2890   14.8760 C.2   164  ARG164      0.2592
    125  O         79.3930   24.4560   14.3160 O.2   164  ARG164     -0.2718
    126  CB        81.0260   27.2940   13.6690 C.3   164  ARG164      0.0321
    127  CG        82.1450   27.8910   12.8260 C.3   164  ARG164      0.0489
    128  CD        83.4380   28.0260   13.6350 C.3   164  ARG164      0.2205
    129  NE        83.3580   29.0950   14.6290 N.pl3 164  ARG164     -0.0865
    130  CZ        83.5620   30.3830   14.3660 C.cat 164  ARG164      0.5346
    131  NH1       83.9480   30.7620   13.1550 N.pl3 164  ARG164      0.1354
    132  NH2       83.3730   31.2950   15.3110 N.pl3 164  ARG164      0.1354
    133  N         79.8810   25.7050   16.1170 N.am  165  ASP165     -0.1974
    134  CA        78.7520   25.1980   16.8870 C.3   165  ASP165      0.1709
    135  C         78.6690   23.6770   16.7590 C.2   165  ASP165      0.2293
    136  O         77.5830   23.0980   16.7490 O.2   165  ASP165     -0.2864
    137  CB        77.4450   25.8510   16.4160 C.3   165  ASP165      0.1436
    138  CG        77.5270   27.3770   16.3760 C.2   165  ASP165      0.3671
    139  OD1       78.4720   27.9430   16.9660 O.co2 165  ASP165     -0.2456
    140  OD2       76.5740   28.0110   15.8720 O.co2 165  ASP165     -0.2456
    141  N         83.1820   24.2250   19.5560 N.3   220  ASP220     -0.1225
    142  CA        81.9250   24.3420   20.2960 C.3   220  ASP220      0.1805
    143  C         81.2740   25.7210   20.0600 C.2   220  ASP220      0.2598
    144  O         81.9180   26.6340   19.5390 O.2   220  ASP220     -0.2718
    145  CB        82.1590   24.0970   21.7980 C.3   220  ASP220      0.1424
    146  CG        82.5570   22.6450   22.1170 C.2   220  ASP220      0.3668
    147  OD1       83.0870   21.9520   21.2210 O.co2 220  ASP220     -0.2456
    148  OD2       82.5310   22.2730   23.3120 O.co2 220  ASP220     -0.2456
    149  N         79.9600   25.8080   20.2630 N.am  221  ARG221     -0.1966
    150  CA        79.3050   27.0870   20.5620 C.3   221  ARG221      0.1714
    151  C         80.2100   27.9370   21.4610 C.2   221  ARG221      0.2458
    152  O         80.6420   27.4600   22.5140 O.2   221  ARG221     -0.2730
    153  CB        77.9730   26.8270   21.2850 C.3   221  ARG221      0.0347
    154  CG        76.7170   27.0990   20.4490 C.3   221  ARG221      0.0492
    155  CD        76.3740   28.5900   20.4730 C.3   221  ARG221      0.2205
    156  NE        74.9760   28.8530   20.1390 N.pl3 221  ARG221     -0.0865
    157  CZ        74.1150   29.4630   20.9470 C.cat 221  ARG221      0.5346
    158  NH1       74.3300   29.4810   22.2560 N.pl3 221  ARG221      0.1354
    159  NH2       72.9880   29.9640   20.4600 N.pl3 221  ARG221      0.1354
    160  N         80.3980   29.2290   21.1280 N.am  222  PRO222     -0.2727
    161  CA        81.2350   30.0900   21.9770 C.3   222  PRO222      0.1402
    162  C         80.6370   30.2930   23.3680 C.2   222  PRO222      0.2269
    163  O         81.3760   30.5440   24.3220 O.2   222  PRO222     -0.2865
    164  CB        81.2560   31.4270   21.2240 C.3   222  PRO222      0.0296
    165  CG        80.8500   31.1030   19.8260 C.3   222  PRO222      0.0237
    166  CD        79.9230   29.9300   19.9220 C.3   222  PRO222      0.0939
    167  N         74.0060   35.8790   20.8060 N.3   228  LEU228     -0.1245
    168  CA        75.4230   36.1860   20.6130 C.3   228  LEU228      0.1561
    169  C         75.6940   37.6950   20.5710 C.2   228  LEU228      0.2260
    170  O         76.8100   38.1210   20.2660 O.2   228  LEU228     -0.2867
    171  CB        75.9520   35.5230   19.3340 C.3   228  LEU228      0.0270
    172  CG        75.7040   34.0250   19.1250 C.3   228  LEU228      0.0019
    173  CD1       75.4410   33.7330   17.6510 C.3   228  LEU228      0.0001
    174  CD2       76.8770   33.2010   19.6390 C.3   228  LEU228      0.0001
    175  N         79.0390   39.4830   22.0260 N.3   231  LEU231     -0.1245
    176  CA        80.2050   38.6000   21.9440 C.3   231  LEU231      0.1561
    177  C         81.5160   39.3880   21.9530 C.2   231  LEU231      0.2260
    178  O         82.5080   38.9450   22.5320 O.2   231  LEU231     -0.2867
    179  CB        80.1240   37.7300   20.6830 C.3   231  LEU231      0.0270
    180  CG        80.9220   36.4230   20.6680 C.3   231  LEU231      0.0019
    181  CD1       80.6900   35.6300   21.9460 C.3   231  LEU231      0.0001
    182  CD2       80.5600   35.5920   19.4480 C.3   231  LEU231      0.0001
    183  N         85.7500   25.9470   23.8730 N.3   243  PHE243     -0.1241
    184  CA        85.8500   26.8890   22.7590 C.3   243  PHE243      0.1605
    185  C         87.1610   27.6710   22.8060 C.2   243  PHE243      0.2264
    186  O         87.8700   27.7670   21.8050 O.2   243  PHE243     -0.2867
    187  CB        84.6660   27.8590   22.7560 C.3   243  PHE243      0.0534
    188  CG        84.7210   28.8750   21.6510 C.ar  243  PHE243     -0.0203
    189  CD1       84.4590   28.5030   20.3450 C.ar  243  PHE243     -0.0042
    190  CD2       85.1810   30.1580   21.8950 C.ar  243  PHE243     -0.0042
    191  CE1       84.4670   29.4460   19.3320 C.ar  243  PHE243     -0.0003
    192  CE2       85.2220   31.1000   20.8840 C.ar  243  PHE243     -0.0003
    193  CZ        84.9450   30.7190   19.5840 C.ar  243  PHE243     -0.0000
@<TRIPOS>BOND
     1   113   112    2
     2   109   107    1
     3   112   111    1
     4   107   108    1
     5   107   104    1
     6   104   105    1
     7   104   103    1
     8   110   111    1
     9   105   106    2
    10    85    84    1
    11    99    98    2
    12    10     8   ar
    13    10    11   ar
    14    98    97    1
    15    12    11    1
    16     8     6   ar
    17    84    81    1
    18    11     9   ar
    19     1     2    1
    20     5     6    1
    21     5     2    1
    22     9     7   ar
    23     6     7   ar
    24   102   100    1
    25     2     3    1
    26    42    41    1
    27    42    43    1
    28    97   100    1
    29    97    96    1
    30    81    80    1
    31    81    82    1
    32   100   101    1
    33    41    40    1
    34    89    88    2
    35    83    82    2
    36    82    86   am
    37    96    88   am
    38    88    87    1
    39     3     4    2
    40     3    13   am
    41    86    87    1
    42    87    90    1
    43    40    39    1
    44    13    14    1
    45    29    28    1
    46    30    28    1
    47    39    36    1
    48    18    19    1
    49    18    17    1
    50    28    25    1
    51    90    91    1
    52    19    20    1
    53   114   115    1
    54    20    21    2
    55    14    17    1
    56    14    15    1
    57   117   116    2
    58    49    48    1
    59    24    15   am
    60    24    25    1
    61    91    93   ar
    62    91    92   ar
    63    15    16    2
    64    36    37    1
    65    36    35    1
    66    93    95   ar
    67    92    94   ar
    68    25    26    1
    69    21    23    1
    70    21    22    1
    71    37    44   am
    72    37    38    2
    73   115   116    1
    74   115   118    1
    75    94    95   ar
    76    44    45    1
    77    35    33   am
    78   118   119    1
    79   118   120    1
    80    48    45    1
    81    45    46    1
    82    26    27    2
    83    26    31   am
    84   119   121    1
    85    31    32    1
    86    65    64    2
    87    33    32    1
    88    33    34    2
    89    46    47    2
    90    46    50   am
    91   127   128    1
    92   127   126    1
    93   122   123    1
    94   131   130    1
    95    64    70   am
    96    64    63    1
    97    71    70    1
    98    71    72    1
    99   128   129    1
   100   126   123    1
   101    50    51    1
   102    62    63    1
   103    63    66    1
   104   123   124    1
   105    72    73    2
   106    72    74   am
   107   125   124    2
   108   130   129    2
   109   130   132    1
   110    74    75    1
   111   124   133   am
   112    51    52    1
   113    51    54    1
   114    69    67    1
   115    52    53    2
   116    66    67    1
   117    76    75    1
   118    76    77    2
   119    75    78    1
   120    54    55    1
   121   140   138   ar
   122    67    68    1
   123   133   134    1
   124   138   137    1
   125   138   139   ar
   126   137   134    1
   127   136   135    2
   128   135   134    1
   129    79    78    1
   130    55    57   ar
   131    55    56   ar
   132   173   172    1
   133    57    59   ar
   134    56    58   ar
   135   172   171    1
   136   172   174    1
   137    59    60   ar
   138   191   193   ar
   139   191   189   ar
   140   171   168    1
   141   182   180    1
   142    58    60   ar
   143   144   143    2
   144   141   142    1
   145   193   192   ar
   146   165   166    1
   147   165   164    1
   148   166   160    1
   149   143   149   am
   150   143   142    1
   151    60    61    1
   152   156   155    1
   153   156   157    2
   154   149   150    1
   155   170   169    2
   156   142   145    1
   157   189   188   ar
   158   154   155    1
   159   154   153    1
   160   159   157    1
   161   150   153    1
   162   150   151    1
   163   169   168    1
   164   168   167    1
   165   180   179    1
   166   180   181    1
   167   179   176    1
   168   192   190   ar
   169   157   158    1
   170   160   151   am
   171   160   161    1
   172   147   146   ar
   173   164   161    1
   174   151   152    2
   175   188   190   ar
   176   188   187    1
   177   145   146    1
   178   186   185    2
   179   176   177    1
   180   176   175    1
   181   177   178    2
   182   161   162    1
   183   146   148   ar
   184   187   184    1
   185   184   185    1
   186   184   183    1
   187   162   163    2
