@<TRIPOS>MOLECULE
tmp/2b92B00.pdb
 209 203 0 0 0
SMALL
GASTEIGER

@<TRIPOS>ATOM
      1  N         76.8530   33.9790    5.7800 N.3    42  TYR42      -0.1227
      2  CA        76.7590   35.0930    6.6200 C.3    42  TYR42       0.1736
      3  C         76.1020   34.7710    7.9460 C.2    42  TYR42       0.2595
      4  O         75.3830   33.7720    8.0750 O.2    42  TYR42      -0.2718
      5  CB        76.0430   36.2280    5.9270 C.3    42  TYR42       0.0548
      6  CG        74.5190   36.1070    5.8970 C.ar   42  TYR42      -0.0200
      7  CD1       73.7250   37.2090    6.1480 C.ar   42  TYR42      -0.0009
      8  CD2       73.9040   34.9390    5.4980 C.ar   42  TYR42      -0.0009
      9  CE1       72.3520   37.1570    6.0120 C.ar   42  TYR42       0.0417
     10  CE2       72.5300   34.8600    5.3970 C.ar   42  TYR42       0.0417
     11  CZ        71.7580   35.9960    5.6670 C.ar   42  TYR42       0.1957
     12  OH        70.3870   35.9330    5.5780 O.3    42  TYR42      -0.2866
     13  N         76.4140   35.5840    8.9560 N.am   43  ARG43      -0.1966
     14  CA        75.8760   35.4050   10.2980 C.3    43  ARG43       0.1729
     15  C         76.2910   34.1330   10.8720 C.2    43  ARG43       0.2617
     16  O         75.4880   33.4280   11.4520 O.2    43  ARG43      -0.2715
     17  CB        74.3670   35.5130   10.2890 C.3    43  ARG43       0.0348
     18  CG        73.8450   36.6390    9.4350 C.3    43  ARG43       0.0492
     19  CD        73.7780   37.9260   10.2070 C.3    43  ARG43       0.2205
     20  NE        75.0860   38.5250   10.3820 N.pl3  43  ARG43      -0.0865
     21  CZ        75.5000   39.0960   11.5030 C.cat  43  ARG43       0.5346
     22  NH1       74.7140   39.1030   12.5790 N.pl3  43  ARG43       0.1354
     23  NH2       76.7180   39.6170   11.5760 N.pl3  43  ARG43       0.1354
     24  N         77.5670   33.9270   10.9160 N.am   44  THR44      -0.1937
     25  CA        78.0760   32.7000   11.1780 C.3    44  THR44       0.2028
     26  C         79.3300   32.8250   12.1490 C.2    44  THR44       0.2643
     27  O         79.9720   31.8270   12.4860 O.2    44  THR44      -0.2714
     28  CB        78.4680   31.9720    9.8640 C.3    44  THR44       0.1808
     29  OG1       77.9260   30.6500    9.8660 O.3    44  THR44      -0.2208
     30  CG2       79.9780   31.9060    9.7200 C.3    44  THR44       0.0379
     31  N         79.5730   34.0520   12.6430 N.am   45  GLY45      -0.1939
     32  CA        80.5910   34.2850   13.6750 C.3    45  GLY45       0.2014
     33  C         81.9860   34.3720   13.1030 C.2    45  GLY45       0.2639
     34  O         82.9580   34.0170   13.7600 O.2    45  GLY45      -0.2714
     35  N         82.0810   34.8130   11.8690 N.am   46  LYS46      -0.1963
     36  CA        83.3540   34.8950   11.1980 C.3    46  LYS46       0.1728
     37  C         84.1910   35.9580   11.7900 C.2    46  LYS46       0.2617
     38  O         85.3830   35.7450   12.0600 O.2    46  LYS46      -0.2715
     39  CB        83.1590   35.1670    9.7290 C.3    46  LYS46       0.0311
     40  CG        82.5260   34.0530    8.9860 C.3    46  LYS46       0.0038
     41  CD        82.6170   34.2840    7.4910 C.3    46  LYS46       0.0206
     42  CE        81.6620   35.3710    7.0490 C.3    46  LYS46       0.1093
     43  NZ        80.2420   35.0270    7.3570 N.3    46  LYS46      -0.1314
     44  N         83.6420   37.1820   11.8450 N.am   47  SER47      -0.1936
     45  CA        84.4020   38.3540   12.2970 C.3    47  SER47       0.2055
     46  C         84.8970   38.1620   13.7020 C.2    47  SER47       0.2643
     47  O         86.0270   38.5350   14.0260 O.2    47  SER47      -0.2714
     48  CB        83.5440   39.6230   12.2080 C.3    47  SER47       0.2130
     49  OG        82.8450   39.6780   10.9720 O.3    47  SER47      -0.2179
     50  N         84.0850   37.5060   14.5360 N.am   48  TYR48      -0.1973
     51  CA        84.4990   37.1790   15.8920 C.3    48  TYR48       0.1639
     52  C         85.7480   36.3190   15.9100 C.2    48  TYR48       0.2290
     53  O         86.7200   36.6410   16.5810 O.2    48  TYR48      -0.2864
     54  CB        83.3820   36.4940   16.6490 C.3    48  TYR48       0.0560
     55  CG        83.7380   36.1540   18.0820 C.ar   48  TYR48      -0.0198
     56  CD1       83.8570   37.1390   19.0340 C.ar   48  TYR48      -0.0009
     57  CD2       83.9490   34.8470   18.4650 C.ar   48  TYR48      -0.0009
     58  CE1       84.1750   36.8310   20.3370 C.ar   48  TYR48       0.0417
     59  CE2       84.2890   34.5300   19.7510 C.ar   48  TYR48       0.0417
     60  CZ        84.3910   35.5090   20.6800 C.ar   48  TYR48       0.1957
     61  OH        84.7150   35.1800   21.9780 O.3    48  TYR48      -0.2866
     62  N         84.3670   44.4000   13.2790 N.3    61  SER61      -0.1202
     63  CA        83.1410   44.6620   14.0450 C.3    61  SER61       0.2020
     64  C         82.0060   43.6450   13.7310 C.2    61  SER61       0.2619
     65  O         81.9940   43.0200   12.6660 O.2    61  SER61      -0.2717
     66  CB        82.6560   46.0880   13.8260 C.3    61  SER61       0.2103
     67  OG        81.5400   46.1240   12.9530 O.3    61  SER61      -0.2182
     68  N         81.0360   43.5350   14.6570 N.am   62  LEU62      -0.1965
     69  CA        80.3300   42.2620   14.8840 C.3    62  LEU62       0.1728
     70  C         78.9000   42.2590   14.3560 C.2    62  LEU62       0.2617
     71  O         78.5250   41.3200   13.5330 O.2    62  LEU62      -0.2715
     72  CB        80.3440   41.9030   16.3360 C.3    62  LEU62       0.0311
     73  CG        81.6530   41.3720   16.8630 C.3    62  LEU62       0.0022
     74  CD1       81.4020   40.2790   17.8640 C.3    62  LEU62       0.0001
     75  CD2       82.5290   40.8650   15.7110 C.3    62  LEU62       0.0001
     76  N         78.0310   43.0070   14.9840 N.am   63  GLY63      -0.1940
     77  CA        76.5830   42.9530   14.6270 C.3    63  GLY63       0.2014
     78  C         75.8330   41.6760   15.1470 C.2    63  GLY63       0.2639
     79  O         76.1800   40.5420   14.7570 O.2    63  GLY63      -0.2714
     80  N         74.6770   41.9000   15.7630 N.am   64  SER64      -0.1949
     81  CA        74.0740   40.9410   16.6540 C.3    64  SER64       0.1924
     82  C         72.6890   40.5110   16.1300 C.2    64  SER64       0.2314
     83  O         72.0010   39.7180   16.7540 O.2    64  SER64      -0.2863
     84  CB        73.9330   41.5430   18.0350 C.3    64  SER64       0.2116
     85  OG        73.4820   42.9040   17.9550 O.3    64  SER64      -0.2180
     86  N         76.4920   42.1970    8.3520 N.3    69  HIS69      -0.1226
     87  CA        77.2160   43.2620    8.9550 C.3    69  HIS69       0.1752
     88  C         78.4710   43.6650    8.2110 C.2    69  HIS69       0.2596
     89  O         78.6320   44.8340    7.8370 O.2    69  HIS69      -0.2718
     90  CB        77.5320   42.9580   10.3250 C.3    69  HIS69       0.0759
     91  CG        77.9020   44.1270   11.1020 C.ar   69  HIS69       0.0818
     92  ND1       77.0180   45.1460   11.3640 N.ar   69  HIS69      -0.2268
     93  CD2       79.0990   44.5400   11.5670 C.ar   69  HIS69       0.1154
     94  CE1       77.6400   46.1030   12.0150 C.ar   69  HIS69       0.1986
     95  NE2       78.9070   45.7650   12.1400 N.ar   69  HIS69      -0.2212
     96  N         79.4040   42.7560    8.1300 N.am   70  THR70      -0.1953
     97  CA        80.5890   43.0010    7.4100 C.3    70  THR70       0.1897
     98  C         80.2820   43.0780    5.9560 C.2    70  THR70       0.2313
     99  O         79.7050   42.1660    5.4010 O.2    70  THR70      -0.2863
    100  CB        81.6080   41.8980    7.6440 C.3    70  THR70       0.1794
    101  OG1       81.7730   41.6890    9.0530 O.3    70  THR70      -0.2208
    102  CG2       82.9260   42.2620    7.0380 C.3    70  THR70       0.0378
    103  N         88.8150   39.7800    6.5590 N.3    92  ASP92      -0.1225
    104  CA        87.4300   39.4480    6.9280 C.3    92  ASP92       0.1805
    105  C         86.4840   39.7700    5.7980 C.2    92  ASP92       0.2598
    106  O         86.4850   40.8840    5.2780 O.2    92  ASP92      -0.2718
    107  CB        87.0080   40.2140    8.2060 C.3    92  ASP92       0.1424
    108  CG        85.6150   39.7550    8.7490 C.2    92  ASP92       0.3668
    109  OD1       84.9460   40.5600    9.4350 O.co2  92  ASP92      -0.2456
    110  OD2       85.2170   38.6050    8.4680 O.co2  92  ASP92      -0.2456
    111  N         85.6560   38.7900    5.4170 N.am   93  THR93      -0.1953
    112  CA        84.8370   38.9090    4.1990 C.3    93  THR93       0.1897
    113  C         83.3390   39.1080    4.5150 C.2    93  THR93       0.2313
    114  O         82.8430   38.6450    5.5400 O.2    93  THR93      -0.2863
    115  CB        84.9860   37.7170    3.3210 C.3    93  THR93       0.1794
    116  OG1       84.4900   36.5590    3.9990 O.3    93  THR93      -0.2208
    117  CG2       86.4450   37.5020    2.9610 C.3    93  THR93       0.0378
    118  N         79.8590   37.8710    4.4300 N.3    95  GLY95      -0.1225
    119  CA        79.3010   36.5130    4.4480 C.3    95  GLY95       0.1811
    120  C         78.4590   36.2030    3.2060 C.2    95  GLY95       0.2280
    121  O         77.7450   37.0630    2.7050 O.2    95  GLY95      -0.2866
    122  N         78.5620   26.3100    9.9050 N.3   126  ILE126     -0.1245
    123  CA        77.9120   25.8950   11.1070 C.3   126  ILE126      0.1561
    124  C         77.5910   24.3920   11.0860 C.2   126  ILE126      0.2260
    125  O         76.8480   23.9190   10.2260 O.2   126  ILE126     -0.2867
    126  CB        76.6880   26.6150   11.3170 C.3   126  ILE126      0.0252
    127  CG1       76.9820   28.0610   11.6860 C.3   126  ILE126      0.0019
    128  CG2       75.8580   25.9450   12.4030 C.3   126  ILE126      0.0019
    129  CD1       75.7440   28.8760   12.0070 C.3   126  ILE126      0.0001
    130  N         81.3460   25.4370   13.4390 N.3   165  ARG165     -0.1231
    131  CA        80.9040   26.2650   14.5270 C.3   165  ARG165      0.1694
    132  C         79.6450   25.6980   15.1890 C.2   165  ARG165      0.2592
    133  O         78.8370   25.0220   14.5410 O.2   165  ARG165     -0.2718
    134  CB        80.6470   27.6730   14.0390 C.3   165  ARG165      0.0321
    135  CG        81.7690   28.2430   13.2310 C.3   165  ARG165      0.0489
    136  CD        82.9830   28.4670   14.0820 C.3   165  ARG165      0.2205
    137  NE        82.7560   29.5010   15.0770 N.pl3 165  ARG165     -0.0865
    138  CZ        82.9020   30.8010   14.8470 C.cat 165  ARG165      0.5346
    139  NH1       83.2410   31.2330   13.6410 N.pl3 165  ARG165      0.1354
    140  NH2       82.6250   31.6800   15.8100 N.pl3 165  ARG165      0.1354
    141  N         79.4740   25.9990   16.4680 N.am  166  ASP166     -0.1974
    142  CA        78.3600   25.4770   17.2310 C.3   166  ASP166      0.1709
    143  C         78.2440   24.0050   17.0770 C.2   166  ASP166      0.2293
    144  O         77.1390   23.4700   16.9820 O.2   166  ASP166     -0.2864
    145  CB        77.0590   26.1450   16.8010 C.3   166  ASP166      0.1436
    146  CG        77.0130   27.6160   17.1620 C.2   166  ASP166      0.3671
    147  OD1       77.9650   28.1010   17.8120 O.co2 166  ASP166     -0.2456
    148  OD2       76.0220   28.2890   16.7990 O.co2 166  ASP166     -0.2456
    149  N         84.3420   23.6570   17.1360 N.3   220  PHE220     -0.1241
    150  CA        84.1940   24.7990   18.0050 C.3   220  PHE220      0.1605
    151  C         82.7830   24.7410   18.6950 C.2   220  PHE220      0.2264
    152  O         81.7590   24.8760   18.0280 O.2   220  PHE220     -0.2867
    153  CB        84.2940   26.0910   17.1940 C.3   220  PHE220      0.0534
    154  CG        85.6300   26.3710   16.6790 C.ar  220  PHE220     -0.0203
    155  CD1       85.8690   26.3270   15.3650 C.ar  220  PHE220     -0.0042
    156  CD2       86.5720   26.8970   17.4820 C.ar  220  PHE220     -0.0042
    157  CE1       87.0570   26.6700   14.8800 C.ar  220  PHE220     -0.0003
    158  CE2       87.7540   27.2430   16.9980 C.ar  220  PHE220     -0.0003
    159  CZ        87.9940   27.1440   15.6950 C.ar  220  PHE220     -0.0000
    160  N         79.6380   26.1530   20.6050 N.3   222  ARG222     -0.1231
    161  CA        78.8830   27.3880   21.0400 C.3   222  ARG222      0.1679
    162  C         79.6970   28.1410   22.1440 C.2   222  ARG222      0.2434
    163  O         80.0460   27.5530   23.1630 O.2   222  ARG222     -0.2733
    164  CB        77.4720   26.9770   21.5990 C.3   222  ARG222      0.0321
    165  CG        76.4250   28.1640   21.7010 C.3   222  ARG222      0.0489
    166  CD        76.2500   28.8720   20.3560 C.3   222  ARG222      0.2205
    167  NE        75.0550   28.3820   19.5970 N.pl3 222  ARG222     -0.0865
    168  CZ        73.7950   28.4720   20.0670 C.cat 222  ARG222      0.5346
    169  NH1       73.5510   28.9820   21.3030 N.pl3 222  ARG222      0.1354
    170  NH2       72.7850   28.0200   19.2960 N.pl3 222  ARG222      0.1354
    171  N         80.0080   29.4610   21.9140 N.am  223  PRO223     -0.2729
    172  CA        80.8380   30.1760   22.9300 C.3   223  PRO223      0.1401
    173  C         80.1610   30.1970   24.3030 C.2   223  PRO223      0.2269
    174  O         80.7780   29.8260   25.3040 O.2   223  PRO223     -0.2865
    175  CB        80.9340   31.6060   22.3640 C.3   223  PRO223      0.0296
    176  CG        80.6260   31.4610   20.8930 C.3   223  PRO223      0.0237
    177  CD        79.6170   30.3390   20.7940 C.3   223  PRO223      0.0939
    178  N         75.2040   35.7800   23.9570 N.3   229  LEU229     -0.1231
    179  CA        76.0970   35.6820   22.7560 C.3   229  LEU229      0.1693
    180  C         76.3590   37.0250   22.1540 C.2   229  LEU229      0.2591
    181  O         77.2490   37.1790   21.3150 O.2   229  LEU229     -0.2718
    182  CB        75.4370   34.7960   21.6960 C.3   229  LEU229      0.0284
    183  CG        75.7130   33.3120   21.7060 C.3   229  LEU229      0.0019
    184  CD1       74.8210   32.6090   20.6750 C.3   229  LEU229      0.0001
    185  CD2       77.1850   33.0470   21.4240 C.3   229  LEU229      0.0001
    186  N         75.4790   37.9580   22.4540 N.am  230  ALA230     -0.1980
    187  CA        75.2310   39.0620   21.5890 C.3   230  ALA230      0.1597
    188  C         75.9530   40.3240   22.0950 C.2   230  ALA230      0.2287
    189  O         76.1030   41.2960   21.3530 O.2   230  ALA230     -0.2864
    190  CB        73.7440   39.3120   21.4640 C.3   230  ALA230      0.0319
    191  N         79.6820   40.2940   23.1700 N.3   232  LEU232     -0.1245
    192  CA        80.7050   39.2770   23.0020 C.3   232  LEU232      0.1561
    193  C         82.0490   39.8890   22.7140 C.2   232  LEU232      0.2260
    194  O         83.0790   39.3790   23.1600 O.2   232  LEU232     -0.2867
    195  CB        80.3090   38.2920   21.8750 C.3   232  LEU232      0.0270
    196  CG        80.9540   36.8840   21.9070 C.3   232  LEU232      0.0019
    197  CD1       80.7690   36.2310   23.2730 C.3   232  LEU232      0.0001
    198  CD2       80.3770   36.0050   20.8030 C.3   232  LEU232      0.0001
    199  N         85.5840   26.0180   24.4050 N.3   244  PHE244     -0.1241
    200  CA        85.6450   26.8680   23.2710 C.3   244  PHE244      0.1605
    201  C         86.9030   27.7260   23.2910 C.2   244  PHE244      0.2264
    202  O         87.4960   27.9810   22.2620 O.2   244  PHE244     -0.2867
    203  CB        84.4220   27.7470   23.2140 C.3   244  PHE244      0.0534
    204  CG        84.5230   28.8430   22.2340 C.ar  244  PHE244     -0.0203
    205  CD1       84.2110   28.6350   20.9190 C.ar  244  PHE244     -0.0042
    206  CD2       84.9260   30.0910   22.6210 C.ar  244  PHE244     -0.0042
    207  CE1       84.2990   29.6470   20.0160 C.ar  244  PHE244     -0.0003
    208  CE2       85.0120   31.1090   21.7170 C.ar  244  PHE244     -0.0003
    209  CZ        84.7020   30.8840   20.4170 C.ar  244  PHE244     -0.0000
@<TRIPOS>BOND
     1   121   120    2
     2   117   115    1
     3   120   119    1
     4   115   116    1
     5   115   112    1
     6   112   113    1
     7   112   111    1
     8   118   119    1
     9   113   114    2
    10   106   105    2
    11    10     8   ar
    12    10    11   ar
    13    99    98    2
    14   111   105   am
    15     8     6   ar
    16    12    11    1
    17    11     9   ar
    18     1     2    1
    19   105   104    1
    20     6     5    1
    21     6     7   ar
    22     5     2    1
    23    98    97    1
    24     9     7   ar
    25   103   104    1
    26     2     3    1
    27   104   107    1
    28   102   100    1
    29    42    43    1
    30    42    41    1
    31    97   100    1
    32    97    96    1
    33    41    40    1
    34   100   101    1
    35    89    88    2
    36     3     4    2
    37     3    13   am
    38    96    88   am
    39   107   108    1
    40    88    87    1
    41    86    87    1
    42   110   108   ar
    43   108   109   ar
    44    87    90    1
    45    13    14    1
    46    40    39    1
    47    18    19    1
    48    18    17    1
    49    30    28    1
    50    39    36    1
    51    28    29    1
    52    28    25    1
    53   122   123    1
    54    19    20    1
    55   125   124    2
    56    17    14    1
    57    14    15    1
    58    90    91    1
    59    20    21    2
    60    15    24   am
    61    15    16    2
    62    24    25    1
    63    49    48    1
    64   124   123    1
    65    91    92   ar
    66    91    93   ar
    67   123   126    1
    68    25    26    1
    69    36    37    1
    70    36    35    1
    71   126   127    1
    72   126   128    1
    73    92    94   ar
    74    21    23    1
    75    21    22    1
    76    93    95   ar
    77   127   129    1
    78    37    44   am
    79    37    38    2
    80    44    45    1
    81    35    33   am
    82    94    95   ar
    83    26    27    2
    84    26    31   am
    85    48    45    1
    86    45    46    1
    87    31    32    1
    88    65    64    2
    89    67    66    1
    90    33    32    1
    91    33    34    2
    92   135   134    1
    93   135   136    1
    94    62    63    1
    95   130   131    1
    96    71    70    2
    97   139   138    1
    98    46    47    2
    99    46    50   am
   100    64    63    1
   101    64    68   am
   102    66    63    1
   103   134   131    1
   104   136   137    1
   105    70    69    1
   106    70    76   am
   107   131   132    1
   108    50    51    1
   109   133   132    2
   110    77    76    1
   111    77    78    1
   112    68    69    1
   113    79    78    2
   114   138   137    2
   115   138   140    1
   116   157   155   ar
   117   157   159   ar
   118    69    72    1
   119    78    80   am
   120   132   141   am
   121   155   154   ar
   122   159   158   ar
   123    75    73    1
   124    80    81    1
   125    51    52    1
   126    51    54    1
   127    52    53    2
   128    82    81    1
   129    82    83    2
   130    72    73    1
   131   141   142    1
   132    54    55    1
   133    81    84    1
   134   154   153    1
   135   154   156   ar
   136   148   146   ar
   137   145   146    1
   138   145   142    1
   139    73    74    1
   140   144   143    2
   141   158   156   ar
   142   143   142    1
   143   149   150    1
   144   146   147   ar
   145   153   150    1
   146    85    84    1
   147   150   151    1
   148   152   151    2
   149    55    57   ar
   150    55    56   ar
   151    57    59   ar
   152    56    58   ar
   153   170   168    1
   154   167   168    2
   155   167   166    1
   156    59    60   ar
   157   207   209   ar
   158   207   205   ar
   159   168   169    1
   160    58    60   ar
   161   166   165    1
   162   209   208   ar
   163   160   161    1
   164   184   183    1
   165    60    61    1
   166   177   176    1
   167   177   171    1
   168   198   196    1
   169   176   175    1
   170   205   204   ar
   171   161   164    1
   172   161   162    1
   173   181   180    2
   174   189   188    2
   175   185   183    1
   176   190   187    1
   177   187   188    1
   178   187   186    1
   179   164   165    1
   180   182   183    1
   181   182   179    1
   182   208   206   ar
   183   195   196    1
   184   195   192    1
   185   196   197    1
   186   171   162   am
   187   171   172    1
   188   162   163    2
   189   180   186   am
   190   180   179    1
   191   204   206   ar
   192   204   203    1
   193   202   201    2
   194   175   172    1
   195   193   192    1
   196   193   194    2
   197   179   178    1
   198   172   173    1
   199   192   191    1
   200   203   200    1
   201   200   201    1
   202   200   199    1
   203   173   174    2
