@<TRIPOS>MOLECULE
tmp/2b96A03.pdb
 91 90 0 0 0
SMALL
GASTEIGER

@<TRIPOS>ATOM
      1  N         32.5990   -0.1860   61.4030 N.3    24  ASN24      -0.1225
      2  CA        32.9600   -0.0080   60.0050 C.3    24  ASN24       0.1785
      3  C         31.8000   -0.4050   59.1010 C.2    24  ASN24       0.2597
      4  O         31.8640   -1.3970   58.3720 O.2    24  ASN24      -0.2718
      5  CB        34.2010   -0.8320   59.6570 C.3    24  ASN24       0.1169
      6  CG        35.1290   -0.0990   58.7100 C.2    24  ASN24       0.2627
      7  OD1       35.6930    0.9400   59.0590 O.2    24  ASN24      -0.2716
      8  ND2       35.2890   -0.6300   57.5040 N.am   24  ASN24      -0.0877
      9  N         30.7320    0.3790   59.1730 N.am   25  TYR25      -0.1962
     10  CA        29.5350    0.1550   58.3750 C.3    25  TYR25       0.1771
     11  C         29.1260    1.5110   57.8190 C.2    25  TYR25       0.2620
     12  O         29.0840    2.4980   58.5490 O.2    25  TYR25      -0.2715
     13  CB        28.4220   -0.4240   59.2580 C.3    25  TYR25       0.0574
     14  CG        27.0790   -0.6250   58.5770 C.ar   25  TYR25      -0.0198
     15  CD1       26.2800    0.4650   58.2150 C.ar   25  TYR25      -0.0009
     16  CD2       26.5880   -1.9100   58.3310 C.ar   25  TYR25      -0.0009
     17  CE1       25.0280    0.2780   57.6320 C.ar   25  TYR25       0.0417
     18  CE2       25.3380   -2.1060   57.7480 C.ar   25  TYR25       0.0417
     19  CZ        24.5640   -1.0090   57.4040 C.ar   25  TYR25       0.1957
     20  OH        23.3210   -1.2070   56.8510 O.3    25  TYR25      -0.2866
     21  N         28.8470    1.5640   56.5220 N.am   26  GLY26      -0.1940
     22  CA        28.4380    2.8180   55.9170 C.3    26  GLY26       0.2014
     23  C         29.4830    3.9120   55.9830 C.2    26  GLY26       0.2639
     24  O         30.6830    3.6410   55.9780 O.2    26  GLY26      -0.2714
     25  N         29.0240    5.1580   56.0480 N.am   27  CYS27      -0.1953
     26  CA        29.9200    6.3030   56.1040 C.3    27  CYS27       0.1843
     27  C         30.1530    6.8730   57.4990 C.2    27  CYS27       0.2625
     28  O         31.0670    7.6770   57.6840 O.2    27  CYS27      -0.2714
     29  CB        29.4000    7.4200   55.2010 C.3    27  CYS27       0.0997
     30  SG        29.5770    7.0840   53.4240 S.3    27  CYS27      -0.0797
     31  N         29.3460    6.4640   58.4770 N.am   28  TYR28      -0.1960
     32  CA        29.4910    6.9850   59.8370 C.3    28  TYR28       0.1771
     33  C         29.7550    5.9750   60.9490 C.2    28  TYR28       0.2620
     34  O         30.2590    6.3460   62.0120 O.2    28  TYR28      -0.2715
     35  CB        28.2580    7.8170   60.2220 C.3    28  TYR28       0.0574
     36  CG        28.1610    9.1290   59.4810 C.ar   28  TYR28      -0.0198
     37  CD1       27.6520    9.1870   58.1840 C.ar   28  TYR28      -0.0009
     38  CD2       28.6290   10.3070   60.0580 C.ar   28  TYR28      -0.0009
     39  CE1       27.6160   10.3910   57.4790 C.ar   28  TYR28       0.0417
     40  CE2       28.6000   11.5120   59.3640 C.ar   28  TYR28       0.0417
     41  CZ        28.0950   11.5470   58.0760 C.ar   28  TYR28       0.1957
     42  OH        28.0810   12.7390   57.3840 O.3    28  TYR28      -0.2866
     43  N         29.4130    4.7100   60.7340 N.am   29  CYS29      -0.1954
     44  CA        29.6390    3.7160   61.7810 C.3    29  CYS29       0.1843
     45  C         31.1000    3.2910   61.8060 C.2    29  CYS29       0.2626
     46  O         31.5540    2.5210   60.9620 O.2    29  CYS29      -0.2714
     47  CB        28.7490    2.4990   61.5700 C.3    29  CYS29       0.0997
     48  SG        26.9790    2.8770   61.4080 S.3    29  CYS29      -0.0797
     49  N         31.8190    3.7990   62.8000 N.am   30  GLY30      -0.1940
     50  CA        33.2360    3.5190   62.9420 C.3    30  GLY30       0.2014
     51  C         33.8800    4.8580   63.2350 C.2    30  GLY30       0.2639
     52  O         33.2140    5.8840   63.1280 O.2    30  GLY30      -0.2714
     53  N         35.1570    4.8800   63.5990 N.am   31  LEU31      -0.1963
     54  CA        35.7940    6.1560   63.8990 C.3    31  LEU31       0.1728
     55  C         35.6810    7.1170   62.7210 C.2    31  LEU31       0.2617
     56  O         35.9630    6.7540   61.5790 O.2    31  LEU31      -0.2715
     57  CB        37.2670    5.9630   64.2730 C.3    31  LEU31       0.0311
     58  CG        37.6590    6.4680   65.6680 C.3    31  LEU31       0.0022
     59  CD1       39.1750    6.5670   65.7580 C.3    31  LEU31       0.0001
     60  CD2       37.0330    7.8350   65.9340 C.3    31  LEU31       0.0001
     61  N         35.2580    8.3450   63.0090 N.am   32  GLY32      -0.1940
     62  CA        35.1060    9.3430   61.9670 C.3    32  GLY32       0.2014
     63  C         33.7990    9.1930   61.2100 C.2    32  GLY32       0.2639
     64  O         32.9530    8.3700   61.5610 O.2    32  GLY32      -0.2714
     65  N         33.6320    9.9890   60.1620 N.am   33  GLY33      -0.1954
     66  CA        32.4150    9.9140   59.3770 C.3    33  GLY33       0.1869
     67  C         32.0980   11.2190   58.6800 C.2    33  GLY33       0.2309
     68  O         32.1990   12.2940   59.2730 O.2    33  GLY33      -0.2863
     69  N         32.2550   -0.3990   54.0340 N.3   118  LEU118     -0.1245
     70  CA        32.0710    0.4650   52.8730 C.3   118  LEU118      0.1561
     71  C         33.2970    1.3320   52.6240 C.2   118  LEU118      0.2260
     72  O         33.9540    1.7880   53.5610 O.2   118  LEU118     -0.2867
     73  CB        30.8410    1.3590   53.0620 C.3   118  LEU118      0.0270
     74  CG        30.4460    2.2520   51.8810 C.3   118  LEU118      0.0019
     75  CD1       30.0400    1.3910   50.6920 C.3   118  LEU118      0.0001
     76  CD2       29.2980    3.1580   52.2910 C.3   118  LEU118      0.0001
     77  N         35.4160    4.4070   52.0750 N.3   120  LYS120     -0.1245
     78  CA        35.3330    5.8020   52.4990 C.3   120  LYS120      0.1561
     79  C         35.3630    6.7750   51.3300 C.2   120  LYS120      0.2260
     80  O         35.3490    7.9890   51.5280 O.2   120  LYS120     -0.2867
     81  CB        36.4950    6.1230   53.4390 C.3   120  LYS120      0.0271
     82  CG        36.4680    5.3110   54.7020 C.3   120  LYS120      0.0035
     83  CD        37.7580    4.6630   55.0760 C.3   120  LYS120      0.0206
     84  CE        38.0950    3.6160   54.0600 C.3   120  LYS120      0.1093
     85  NZ        39.3940    2.9990   54.3740 N.3   120  LYS120     -0.1314
     86  N         31.9490    8.3040   50.4920 N.3   123  CYS123     -0.1235
     87  CA        31.5280    9.2770   51.4870 C.3   123  CYS123      0.1677
     88  C         32.0180   10.6920   51.2110 C.2   123  CYS123      0.2270
     89  O         32.9680   11.1350   51.8910 O.2   123  CYS123     -0.2867
     90  CB        31.9980    8.8100   52.8620 C.3   123  CYS123      0.0956
     91  SG        31.5900    7.0620   53.1750 S.3   123  CYS123     -0.0801
@<TRIPOS>BOND
     1    86    87    1
     2    75    74    1
     3    88    87    1
     4    88    89    2
     5    79    80    2
     6    79    78    1
     7    87    90    1
     8    74    76    1
     9    74    73    1
    10    77    78    1
    11    78    81    1
    12    71    70    1
    13    71    72    2
    14    90    91    1
    15    70    73    1
    16    70    69    1
    17    91    30    1
    18    30    29    1
    19    81    82    1
    20    84    85    1
    21    84    83    1
    22    82    83    1
    23    29    26    1
    24    22    23    1
    25    22    21    1
    26    24    23    2
    27    23    25   am
    28    25    26    1
    29    26    27    1
    30    21    11   am
    31    20    19    1
    32    42    41    1
    33    19    17   ar
    34    19    18   ar
    35    39    41   ar
    36    39    37   ar
    37    27    28    2
    38    27    31   am
    39     8     6   am
    40    17    15   ar
    41    18    16   ar
    42    11    10    1
    43    11    12    2
    44    41    40   ar
    45    37    36   ar
    46    15    14   ar
    47    16    14   ar
    48     4     3    2
    49    10     9    1
    50    10    13    1
    51    31    32    1
    52    14    13    1
    53    67    68    2
    54    67    66    1
    55     6     7    2
    56     6     5    1
    57     3     9   am
    58     3     2    1
    59    40    38   ar
    60    66    65    1
    61    36    38   ar
    62    36    35    1
    63     5     2    1
    64    32    35    1
    65    32    33    1
    66     2     1    1
    67    65    63   am
    68    43    33   am
    69    43    44    1
    70    33    34    2
    71    46    45    2
    72    63    64    2
    73    63    62    1
    74    48    47    1
    75    47    44    1
    76    56    55    2
    77    44    45    1
    78    45    49   am
    79    62    61    1
    80    55    61   am
    81    55    54    1
    82    49    50    1
    83    50    51    1
    84    52    51    2
    85    51    53   am
    86    53    54    1
    87    54    57    1
    88    57    58    1
    89    58    59    1
    90    58    60    1
