@<TRIPOS>MOLECULE
tmp/2b96A04.pdb
 146 144 0 0 0
SMALL
GASTEIGER

@<TRIPOS>ATOM
      1  N         33.6440    2.6150   75.0420 N.3     2  LEU2       -0.1245
      2  CA        33.3330    1.6980   73.9530 C.3     2  LEU2        0.1561
      3  C         32.7770    0.3670   74.4550 C.2     2  LEU2        0.2260
      4  O         31.8300   -0.1700   73.8850 O.2     2  LEU2       -0.2867
      5  CB        34.5890    1.4500   73.1140 C.3     2  LEU2        0.0270
      6  CG        34.4170    0.6810   71.8050 C.3     2  LEU2        0.0019
      7  CD1       33.4750    1.4430   70.8820 C.3     2  LEU2        0.0001
      8  CD2       35.7750    0.4950   71.1440 C.3     2  LEU2        0.0001
      9  N         29.1190    0.7210   75.3680 N.3     5  PHE5       -0.1227
     10  CA        28.2880    0.9150   74.1900 C.3     5  PHE5        0.1736
     11  C         28.0260   -0.4550   73.5690 C.2     5  PHE5        0.2595
     12  O         26.9160   -0.7440   73.1300 O.2     5  PHE5       -0.2718
     13  CB        28.9940    1.8530   73.1990 C.3     5  PHE5        0.0547
     14  CG        28.1780    2.1890   71.9740 C.ar    5  PHE5       -0.0202
     15  CD1       26.7930    2.3250   72.0500 C.ar    5  PHE5       -0.0042
     16  CD2       28.8040    2.4130   70.7520 C.ar    5  PHE5       -0.0042
     17  CE1       26.0470    2.6840   70.9270 C.ar    5  PHE5       -0.0003
     18  CE2       28.0640    2.7740   69.6210 C.ar    5  PHE5       -0.0003
     19  CZ        26.6860    2.9080   69.7100 C.ar    5  PHE5       -0.0000
     20  N         29.0530   -1.3010   73.5460 N.am    6  ASN6       -0.1974
     21  CA        28.9140   -2.6490   73.0000 C.3     6  ASN6        0.1688
     22  C         27.8550   -3.3870   73.8130 C.2     6  ASN6        0.2292
     23  O         26.9450   -3.9970   73.2580 O.2     6  ASN6       -0.2864
     24  CB        30.2520   -3.3960   73.0810 C.3     6  ASN6        0.1181
     25  CG        30.1760   -4.8070   72.5080 C.2     6  ASN6        0.2629
     26  OD1       29.8690   -4.9970   71.3320 O.2     6  ASN6       -0.2716
     27  ND2       30.4650   -5.8010   73.3400 N.am    6  ASN6       -0.0877
     28  N         24.2170   -2.2420   73.0460 N.3     9  ILE9       -0.1245
     29  CA        23.6630   -2.7490   71.8030 C.3     9  ILE9        0.1561
     30  C         23.2180   -4.1930   71.9910 C.2     9  ILE9        0.2260
     31  O         22.1600   -4.5860   71.4990 O.2     9  ILE9       -0.2867
     32  CB        24.6870   -2.6480   70.6570 C.3     9  ILE9        0.0252
     33  CG1       25.0820   -1.1770   70.4620 C.3     9  ILE9        0.0019
     34  CG2       24.0830   -3.2010   69.3710 C.3     9  ILE9        0.0019
     35  CD1       26.2600   -0.9590   69.5330 C.3     9  ILE9        0.0001
     36  N         28.0560   -6.6010   68.4970 N.3    18  PRO18      -0.2102
     37  CA        28.1550   -5.2150   68.0200 C.3    18  PRO18       0.1504
     38  C         29.4540   -4.7580   67.3640 C.2    18  PRO18       0.2575
     39  O         29.4240   -4.2080   66.2650 O.2    18  PRO18      -0.2718
     40  CB        27.8140   -4.4000   69.2660 C.3    18  PRO18       0.0282
     41  CG        26.8250   -5.2810   69.9600 C.3    18  PRO18       0.0208
     42  CD        27.4870   -6.6350   69.8570 C.3    18  PRO18       0.0893
     43  N         30.5840   -4.9720   68.0300 N.am   19  LEU19      -0.1980
     44  CA        31.8700   -4.5520   67.4780 C.3    19  LEU19       0.1596
     45  C         32.1830   -5.1880   66.1310 C.2    19  LEU19       0.2287
     46  O         33.0040   -4.6740   65.3730 O.2    19  LEU19      -0.2864
     47  CB        33.0040   -4.8540   68.4620 C.3    19  LEU19       0.0297
     48  CG        33.3320   -3.7680   69.4890 C.3    19  LEU19       0.0022
     49  CD1       33.8240   -2.5220   68.7680 C.3    19  LEU19       0.0001
     50  CD2       32.1070   -3.4450   70.3160 C.3    19  LEU19       0.0001
     51  N         28.3280   -3.9130   63.7000 N.3    22  PHE22      -0.1227
     52  CA        28.1460   -2.4860   63.4500 C.3    22  PHE22       0.1736
     53  C         29.3790   -1.6190   63.2430 C.2    22  PHE22       0.2595
     54  O         29.2590   -0.4750   62.8050 O.2    22  PHE22      -0.2718
     55  CB        27.2900   -1.8930   64.5680 C.3    22  PHE22       0.0547
     56  CG        25.9470   -2.5450   64.6990 C.ar   22  PHE22      -0.0202
     57  CD1       24.9440   -2.2920   63.7700 C.ar   22  PHE22      -0.0042
     58  CD2       25.6930   -3.4410   65.7290 C.ar   22  PHE22      -0.0042
     59  CE1       23.7080   -2.9250   63.8650 C.ar   22  PHE22      -0.0003
     60  CE2       24.4600   -4.0810   65.8320 C.ar   22  PHE22      -0.0003
     61  CZ        23.4660   -3.8230   64.8980 C.ar   22  PHE22      -0.0000
     62  N         30.5610   -2.1390   63.5540 N.am   23  ASN23      -0.1974
     63  CA        31.7680   -1.3470   63.3580 C.3    23  ASN23       0.1688
     64  C         32.1140   -1.3290   61.8730 C.2    23  ASN23       0.2292
     65  O         31.9400   -2.3240   61.1730 O.2    23  ASN23      -0.2864
     66  CB        32.9370   -1.9220   64.1600 C.3    23  ASN23       0.1181
     67  CG        34.1800   -1.0590   64.0680 C.2    23  ASN23       0.2629
     68  OD1       34.1230    0.1510   64.2900 O.2    23  ASN23      -0.2716
     69  ND2       35.3110   -1.6760   63.7440 N.am   23  ASN23      -0.0877
     70  N         29.3460    6.4640   58.4770 N.3    28  TYR28      -0.1227
     71  CA        29.4910    6.9850   59.8370 C.3    28  TYR28       0.1736
     72  C         29.7550    5.9750   60.9490 C.2    28  TYR28       0.2596
     73  O         30.2590    6.3460   62.0120 O.2    28  TYR28      -0.2718
     74  CB        28.2580    7.8170   60.2220 C.3    28  TYR28       0.0548
     75  CG        28.1610    9.1290   59.4810 C.ar   28  TYR28      -0.0200
     76  CD1       27.6520    9.1870   58.1840 C.ar   28  TYR28      -0.0009
     77  CD2       28.6290   10.3070   60.0580 C.ar   28  TYR28      -0.0009
     78  CE1       27.6160   10.3910   57.4790 C.ar   28  TYR28       0.0417
     79  CE2       28.6000   11.5120   59.3640 C.ar   28  TYR28       0.0417
     80  CZ        28.0950   11.5470   58.0760 C.ar   28  TYR28       0.1957
     81  OH        28.0810   12.7390   57.3840 O.3    28  TYR28      -0.2866
     82  N         29.4130    4.7100   60.7340 N.am   29  CYS29      -0.1956
     83  CA        29.6390    3.7160   61.7810 C.3    29  CYS29       0.1843
     84  C         31.1000    3.2910   61.8060 C.2    29  CYS29       0.2626
     85  O         31.5540    2.5210   60.9620 O.2    29  CYS29      -0.2714
     86  CB        28.7490    2.4990   61.5700 C.3    29  CYS29       0.0997
     87  SG        26.9790    2.8770   61.4080 S.3    29  CYS29      -0.0797
     88  N         31.8190    3.7990   62.8000 N.am   30  GLY30      -0.1940
     89  CA        33.2360    3.5190   62.9420 C.3    30  GLY30       0.2014
     90  C         33.8800    4.8580   63.2350 C.2    30  GLY30       0.2638
     91  O         33.2140    5.8840   63.1280 O.2    30  GLY30      -0.2714
     92  N         35.1570    4.8800   63.5990 N.am   31  LEU31      -0.1977
     93  CA        35.7940    6.1560   63.8990 C.3    31  LEU31       0.1596
     94  C         35.6810    7.1170   62.7210 C.2    31  LEU31       0.2287
     95  O         35.9630    6.7540   61.5790 O.2    31  LEU31      -0.2864
     96  CB        37.2670    5.9630   64.2730 C.3    31  LEU31       0.0297
     97  CG        37.6590    6.4680   65.6680 C.3    31  LEU31       0.0022
     98  CD1       39.1750    6.5670   65.7580 C.3    31  LEU31       0.0001
     99  CD2       37.0330    7.8350   65.9340 C.3    31  LEU31       0.0001
    100  N         24.2860    6.1810   63.1980 N.3    45  CYS45      -0.1235
    101  CA        25.6740    6.4630   63.5430 C.3    45  CYS45       0.1677
    102  C         26.0050    7.9320   63.3710 C.2    45  CYS45       0.2270
    103  O         26.7930    8.4820   64.1360 O.2    45  CYS45      -0.2867
    104  CB        26.6270    5.6110   62.7020 C.3    45  CYS45       0.0956
    105  SG        26.4830    3.8490   63.1190 S.3    45  CYS45      -0.0801
    106  N         24.7940    9.6280   66.3530 N.3    48  HIS48      -0.1226
    107  CA        25.6540    9.2530   67.4710 C.3    48  HIS48       0.1752
    108  C         26.9540   10.0660   67.4160 C.2    48  HIS48       0.2596
    109  O         27.4410   10.5460   68.4400 O.2    48  HIS48      -0.2718
    110  CB        25.9530    7.7540   67.4030 C.3    48  HIS48       0.0759
    111  CG        26.7100    7.2250   68.5890 C.ar   48  HIS48       0.0818
    112  ND1       27.9780    6.7110   68.4860 N.ar   48  HIS48      -0.2268
    113  CD2       26.3540    7.1230   69.8920 C.ar   48  HIS48       0.1154
    114  CE1       28.3830    6.3070   69.6860 C.ar   48  HIS48       0.1986
    115  NE2       27.4200    6.5460   70.5480 N.ar   48  HIS48      -0.2212
    116  N         27.5100   10.2150   66.2160 N.am   49  ASP49      -0.1974
    117  CA        28.7350   10.9850   66.0210 C.3    49  ASP49       0.1709
    118  C         28.5140   12.4330   66.4560 C.2    49  ASP49       0.2293
    119  O         29.3610   13.0300   67.1200 O.2    49  ASP49      -0.2864
    120  CB        29.1470   10.9690   64.5430 C.3    49  ASP49       0.1436
    121  CG        29.8760    9.6930   64.1390 C.2    49  ASP49       0.3671
    122  OD1       29.7980    8.6760   64.8610 O.co2  49  ASP49      -0.2456
    123  OD2       30.5250    9.7120   63.0740 O.co2  49  ASP49      -0.2456
    124  N         35.0580    7.5930   73.9470 N.3    69  TYR69      -0.1241
    125  CA        35.3730    6.1800   73.7650 C.3    69  TYR69       0.1605
    126  C         36.0600    5.5420   74.9690 C.2    69  TYR69       0.2264
    127  O         35.9890    4.3260   75.1500 O.2    69  TYR69      -0.2867
    128  CB        36.2550    5.9970   72.5250 C.3    69  TYR69       0.0534
    129  CG        35.5810    6.3810   71.2250 C.ar   69  TYR69      -0.0201
    130  CD1       34.6800    5.5190   70.6000 C.ar   69  TYR69      -0.0009
    131  CD2       35.8340    7.6140   70.6250 C.ar   69  TYR69      -0.0009
    132  CE1       34.0480    5.8750   69.4080 C.ar   69  TYR69       0.0417
    133  CE2       35.2070    7.9820   69.4350 C.ar   69  TYR69       0.0417
    134  CZ        34.3160    7.1080   68.8330 C.ar   69  TYR69       0.1957
    135  OH        33.6950    7.4700   67.6590 O.3    69  TYR69      -0.2866
    136  N         19.7410    1.4880   66.4850 N.3   106  PHE106     -0.1241
    137  CA        20.2400    0.3190   65.7550 C.3   106  PHE106      0.1605
    138  C         19.2060   -0.8080   65.7440 C.2   106  PHE106      0.2264
    139  O         19.0300   -1.4980   64.7400 O.2   106  PHE106     -0.2867
    140  CB        21.5230   -0.2340   66.4040 C.3   106  PHE106      0.0534
    141  CG        22.7390    0.6430   66.2420 C.ar  106  PHE106     -0.0203
    142  CD1       22.6860    1.8380   65.5330 C.ar  106  PHE106     -0.0042
    143  CD2       23.9520    0.2560   66.8050 C.ar  106  PHE106     -0.0042
    144  CE1       23.8240    2.6330   65.3850 C.ar  106  PHE106     -0.0003
    145  CE2       25.0940    1.0440   66.6620 C.ar  106  PHE106     -0.0003
    146  CZ        25.0280    2.2350   65.9520 C.ar  106  PHE106     -0.0000
@<TRIPOS>BOND
     1    81    80    1
     2    78    80   ar
     3    78    76   ar
     4    80    79   ar
     5    76    75   ar
     6    70    71    1
     7    79    77   ar
     8    75    77   ar
     9    75    74    1
    10    71    74    1
    11    71    72    1
    12    82    72   am
    13    82    83    1
    14    72    73    2
    15    85    84    2
    16    65    64    2
    17    87    86    1
    18    87   105    1
    19    86    83    1
    20    95    94    2
    21    83    84    1
    22    84    88   am
    23    64    63    1
    24   104   105    1
    25   104   101    1
    26    94    93    1
    27    88    89    1
    28    54    53    2
    29    89    90    1
    30   123   121   ar
    31    91    90    2
    32   100   101    1
    33    90    92   am
    34    53    52    1
    35    53    62   am
    36    63    62    1
    37    63    66    1
    38   102   101    1
    39   102   103    2
    40    52    51    1
    41    52    55    1
    42    92    93    1
    43    69    67   am
    44    57    59   ar
    45    57    56   ar
    46    59    61   ar
    47    93    96    1
    48    67    66    1
    49    67    68    2
    50   121   120    1
    51   121   122   ar
    52    96    97    1
    53   120   117    1
    54    55    56    1
    55    56    58   ar
    56   139   138    2
    57    61    60   ar
    58    46    45    2
    59   144   142   ar
    60   144   146   ar
    61   142   141   ar
    62    97    98    1
    63    97    99    1
    64    58    60   ar
    65   138   137    1
    66   137   140    1
    67   137   136    1
    68   146   145   ar
    69   117   116    1
    70   117   118    1
    71    45    44    1
    72   116   108   am
    73   141   140    1
    74   141   143   ar
    75    39    38    2
    76   106   107    1
    77   118   119    2
    78   145   143   ar
    79    38    37    1
    80    38    43   am
    81   110   107    1
    82   110   111    1
    83   108   107    1
    84   108   109    2
    85    44    43    1
    86    44    47    1
    87   135   134    1
    88    37    36    1
    89    37    40    1
    90    47    48    1
    91   112   111   ar
    92   112   114   ar
    93    36    42    1
    94   111   113   ar
    95    49    48    1
    96   134   132   ar
    97   134   133   ar
    98    40    41    1
    99    34    32    1
   100   132   130   ar
   101   133   131   ar
   102    48    50    1
   103    35    33    1
   104    18    19   ar
   105    18    16   ar
   106   114   115   ar
   107    19    17   ar
   108    42    41    1
   109   113   115   ar
   110    33    32    1
   111   130   129   ar
   112   131   129   ar
   113    32    29    1
   114    16    14   ar
   115     7     6    1
   116    17    15   ar
   117     8     6    1
   118   129   128    1
   119    26    25    2
   120    31    30    2
   121    29    30    1
   122    29    28    1
   123     6     5    1
   124    14    15   ar
   125    14    13    1
   126    25    24    1
   127    25    27   am
   128   128   125    1
   129    21    24    1
   130    21    20    1
   131    21    22    1
   132     5     2    1
   133    12    11    2
   134    13    10    1
   135    23    22    2
   136    20    11   am
   137    11    10    1
   138   125   124    1
   139   125   126    1
   140     4     3    2
   141     2     3    1
   142     2     1    1
   143    10     9    1
   144   126   127    2
