@<TRIPOS>MOLECULE
tmp/2b99D00.pdb
 101 98 0 0 0
SMALL
GASTEIGER

@<TRIPOS>ATOM
      1  N         -3.9100   -0.4840   23.9110 N.3     8  THR8       -0.1218
      2  CA        -4.3470    0.9060   23.8510 C.3     8  THR8        0.1862
      3  C         -5.1380    1.4090   25.0530 C.2     8  THR8        0.2287
      4  O         -5.6410    0.6200   25.8560 O.2     8  THR8       -0.2866
      5  CB        -5.2260    1.1060   22.6180 C.3     8  THR8        0.1770
      6  OG1       -6.5190    0.5220   22.8470 O.3     8  THR8       -0.2211
      7  CG2       -4.6020    0.4160   21.4160 C.3     8  THR8        0.0375
      8  N         -7.6740    3.3660   24.4420 N.3    10  PHE10      -0.1241
      9  CA        -9.0140    3.4860   23.8600 C.3    10  PHE10       0.1605
     10  C         -9.8640    2.2480   24.1690 C.2    10  PHE10       0.2264
     11  O        -11.0740    2.3460   24.4230 O.2    10  PHE10      -0.2867
     12  CB        -8.9030    3.6590   22.3410 C.3    10  PHE10       0.0534
     13  CG       -10.1930    4.0350   21.6750 C.ar   10  PHE10      -0.0203
     14  CD1      -10.4260    5.3480   21.2840 C.ar   10  PHE10      -0.0042
     15  CD2      -11.1770    3.0750   21.4360 C.ar   10  PHE10      -0.0042
     16  CE1      -11.6200    5.7140   20.6620 C.ar   10  PHE10      -0.0003
     17  CE2      -12.3750    3.4220   20.8180 C.ar   10  PHE10      -0.0003
     18  CZ       -12.5970    4.7520   20.4290 C.ar   10  PHE10      -0.0000
     19  N         -2.3060    5.4820   22.4210 N.3    38  PRO38      -0.2102
     20  CA        -3.6830    5.9690   22.5290 C.3    38  PRO38       0.1504
     21  C         -4.7200    5.0320   21.9430 C.2    38  PRO38       0.2576
     22  O         -5.6590    4.6060   22.6380 O.2    38  PRO38      -0.2718
     23  CB        -3.6280    7.3090   21.8000 C.3    38  PRO38       0.0282
     24  CG        -2.2530    7.8000   22.1130 C.3    38  PRO38       0.0208
     25  CD        -1.4140    6.5430   21.9120 C.3    38  PRO38       0.0893
     26  N         -4.5580    4.7010   20.6630 N.am   39  GLY39      -0.1943
     27  CA        -5.5210    3.8210   20.0370 C.3    39  GLY39       0.2014
     28  C         -5.0620    2.9980   18.8470 C.2    39  GLY39       0.2639
     29  O         -3.8710    2.9010   18.5160 O.2    39  GLY39      -0.2714
     30  N         -6.0550    2.3980   18.2120 N.am   40  ILE40      -0.1963
     31  CA        -5.8960    1.5480   17.0540 C.3    40  ILE40       0.1727
     32  C         -4.8510    1.9830   16.0150 C.2    40  ILE40       0.2616
     33  O         -3.9460    1.2190   15.6720 O.2    40  ILE40      -0.2715
     34  CB        -7.2950    1.3600   16.3850 C.3    40  ILE40       0.0290
     35  CG1       -7.7910   -0.0610   16.6300 C.3    40  ILE40       0.0022
     36  CG2       -7.2700    1.7240   14.9130 C.3    40  ILE40       0.0023
     37  CD1       -6.7080   -1.0140   17.0300 C.3    40  ILE40       0.0001
     38  N         -4.9570    3.2070   15.5280 N.am   41  LYS41      -0.1963
     39  CA        -4.0270    3.6840   14.5180 C.3    41  LYS41       0.1728
     40  C         -2.6160    3.9620   15.0060 C.2    41  LYS41       0.2616
     41  O         -1.7310    4.2500   14.2020 O.2    41  LYS41      -0.2715
     42  CB        -4.6060    4.9250   13.8390 C.3    41  LYS41       0.0311
     43  CG        -5.9420    4.6300   13.1830 C.3    41  LYS41       0.0038
     44  CD        -5.9900    5.1480   11.7540 C.3    41  LYS41       0.0206
     45  CE        -6.0630    6.6560   11.7400 C.3    41  LYS41       0.1093
     46  NZ        -7.2850    7.1160   12.4490 N.3    41  LYS41      -0.1314
     47  N         -2.3920    3.8670   16.3130 N.am   42  ASP42      -0.1971
     48  CA        -1.0590    4.1220   16.8450 C.3    42  ASP42       0.1709
     49  C         -0.2920    2.8180   17.0640 C.2    42  ASP42       0.2293
     50  O          0.8950    2.8430   17.3860 O.2    42  ASP42      -0.2864
     51  CB        -1.1500    4.9000   18.1660 C.3    42  ASP42       0.1436
     52  CG        -1.9600    6.1780   18.0380 C.2    42  ASP42       0.3671
     53  OD1       -2.7870    6.4270   18.9250 O.co2  42  ASP42      -0.2456
     54  OD2       -1.7810    6.9320   17.0650 O.co2  42  ASP42      -0.2456
     55  N         -9.4910   -2.4370   20.1840 N.3    64  MET64      -0.1231
     56  CA       -10.9280   -2.5720   20.2130 C.3    64  MET64       0.1687
     57  C        -11.6210   -1.4810   19.4300 C.2    64  MET64       0.2434
     58  O        -11.7540   -0.3510   19.9000 O.2    64  MET64      -0.2733
     59  CB       -11.4320   -2.5560   21.6530 C.3    64  MET64       0.0400
     60  CG       -12.9440   -2.4470   21.7850 C.3    64  MET64       0.0596
     61  SD       -13.4510   -2.7040   23.4930 S.3    64  MET64      -0.1393
     62  CE       -14.6110   -1.4510   23.6800 C.3    64  MET64       0.0692
     63  N        -12.0440   -1.7980   18.2050 N.am   65  PRO65      -0.2718
     64  CA       -12.7410   -0.8320   17.3550 C.3    65  PRO65       0.1535
     65  C        -14.0220   -0.3370   18.0320 C.2    65  PRO65       0.2599
     66  O        -14.6440   -1.0590   18.8110 O.2    65  PRO65      -0.2715
     67  CB       -13.0350   -1.6380   16.0970 C.3    65  PRO65       0.0310
     68  CG       -11.8110   -2.5070   15.9980 C.3    65  PRO65       0.0237
     69  CD       -11.6150   -2.9750   17.4310 C.3    65  PRO65       0.0939
     70  N        -14.4030    0.8990   17.7460 N.am   66  GLY66      -0.1955
     71  CA       -15.6150    1.4280   18.3280 C.3    66  GLY66       0.1869
     72  C        -16.8040    0.8430   17.5900 C.2    66  GLY66       0.2309
     73  O        -16.6370   -0.0130   16.7220 O.2    66  GLY66      -0.2863
     74  N        -17.4830    4.3360   11.0870 N.3    70  LYS70      -0.1231
     75  CA       -16.1840    4.8990   10.7540 C.3    70  LYS70       0.1693
     76  C        -15.0510    4.2290   11.5290 C.2    70  LYS70       0.2592
     77  O        -13.9020    4.1950   11.0730 O.2    70  LYS70      -0.2718
     78  CB       -16.1880    6.4100   11.0040 C.3    70  LYS70       0.0285
     79  CG       -16.9760    7.2070    9.9650 C.3    70  LYS70       0.0035
     80  CD       -18.4520    6.8280    9.9330 C.3    70  LYS70       0.0206
     81  CE       -19.1540    7.2210   11.2220 C.3    70  LYS70       0.1093
     82  NZ       -19.0610    8.6870   11.4660 N.3    70  LYS70      -0.1314
     83  N        -15.3710    3.7030   12.7050 N.am   71  ASP71      -0.1974
     84  CA       -14.3730    3.0090   13.5040 C.3    71  ASP71       0.1709
     85  C        -13.9610    1.7930   12.6860 C.2    71  ASP71       0.2293
     86  O        -12.8420    1.3040   12.7970 O.2    71  ASP71      -0.2864
     87  CB       -14.9740    2.5680   14.8410 C.3    71  ASP71       0.1436
     88  CG       -15.4210    3.7410   15.6940 C.2    71  ASP71       0.3671
     89  OD1      -16.3060    3.5470   16.5550 O.co2  71  ASP71      -0.2456
     90  OD2      -14.8800    4.8540   15.5090 O.co2  71  ASP71      -0.2456
     91  N        -11.2460    3.0270   10.5580 N.3    74  CYS74      -0.1221
     92  CA       -10.0140    3.1790   11.3230 C.3    74  CYS74       0.1808
     93  C         -9.3900    1.8110   11.5700 C.2    74  CYS74       0.2601
     94  O         -8.1830    1.6370   11.4210 O.2    74  CYS74      -0.2717
     95  CB       -10.2800    3.8980   12.6540 C.3    74  CYS74       0.0970
     96  SG       -10.4340    5.7130   12.4870 S.3    74  CYS74      -0.0800
     97  N        -10.2210    0.8390   11.9330 N.am   75  ALA75      -0.1979
     98  CA        -9.7400   -0.5210   12.1860 C.3    75  ALA75       0.1597
     99  C         -9.0370   -1.0510   10.9350 C.2    75  ALA75       0.2287
    100  O         -7.9140   -1.5400   11.0000 O.2    75  ALA75      -0.2864
    101  CB       -10.9070   -1.4270   12.5550 C.3    75  ALA75       0.0319
@<TRIPOS>BOND
     1    80    79    1
     2    80    81    1
     3    79    78    1
     4    91    92    1
     5    75    78    1
     6    75    74    1
     7    75    76    1
     8    99   100    2
     9    99    98    1
    10    77    76    2
    11    81    82    1
    12    92    93    1
    13    92    95    1
    14    94    93    2
    15    76    83   am
    16    93    97   am
    17    45    44    1
    18    45    46    1
    19    44    43    1
    20    97    98    1
    21    98   101    1
    22    96    95    1
    23    85    86    2
    24    85    84    1
    25    83    84    1
    26    43    42    1
    27    84    87    1
    28    42    39    1
    29    41    40    2
    30    39    40    1
    31    39    38    1
    32    87    88    1
    33    36    34    1
    34    40    47   am
    35    90    88   ar
    36    38    32   am
    37    33    32    2
    38    88    89   ar
    39    68    67    1
    40    68    69    1
    41    32    31    1
    42    67    64    1
    43    47    48    1
    44    34    35    1
    45    34    31    1
    46    35    37    1
    47    73    72    2
    48    48    49    1
    49    48    51    1
    50    31    30    1
    51    49    50    2
    52    54    52   ar
    53    64    65    1
    54    64    63    1
    55    69    63    1
    56    72    71    1
    57    70    65   am
    58    70    71    1
    59    65    66    2
    60    52    51    1
    61    52    53   ar
    62    63    57   am
    63    30    28   am
    64    29    28    2
    65    28    27    1
    66    57    58    2
    67    57    56    1
    68    27    26    1
    69    55    56    1
    70    56    59    1
    71    18    16   ar
    72    18    17   ar
    73    16    14   ar
    74    26    21   am
    75    17    15   ar
    76    14    13   ar
    77     7     5    1
    78    15    13   ar
    79    59    60    1
    80    13    12    1
    81    60    61    1
    82    23    24    1
    83    23    20    1
    84    25    24    1
    85    25    19    1
    86    21    20    1
    87    21    22    2
    88    12     9    1
    89    19    20    1
    90     5     6    1
    91     5     2    1
    92    61    62    1
    93     2     1    1
    94     2     3    1
    95     9    10    1
    96     9     8    1
    97    10    11    2
    98     3     4    2
