@<TRIPOS>MOLECULE
tmp/2b9eA00.pdb
 183 181 0 0 0
SMALL
GASTEIGER

@<TRIPOS>ATOM
      1  N         34.7940  -15.8490   12.3900 N.3   100  ASP100     -0.1225
      2  CA        34.4810  -17.1210   13.0360 C.3   100  ASP100      0.1805
      3  C         35.6510  -17.3920   13.9880 C.2   100  ASP100      0.2598
      4  O         36.7340  -17.8330   13.5800 O.2   100  ASP100     -0.2718
      5  CB        34.2710  -18.2370   11.9960 C.3   100  ASP100      0.1424
      6  CG        33.7110  -19.5130   12.6070 C.2   100  ASP100      0.3668
      7  OD1       33.7810  -19.6890   13.8450 O.co2 100  ASP100     -0.2456
      8  OD2       33.1940  -20.3590   11.8470 O.co2 100  ASP100     -0.2456
      9  N         35.4270  -17.0940   15.2680 N.am  101  ALA101     -0.1966
     10  CA        36.5070  -16.9610   16.2500 C.3   101  ALA101      0.1728
     11  C         37.1970  -18.2690   16.6080 C.2   101  ALA101      0.2616
     12  O         38.4240  -18.3000   16.8280 O.2   101  ALA101     -0.2715
     13  CB        35.9720  -16.2920   17.4910 C.3   101  ALA101      0.0334
     14  N         36.4140  -19.3440   16.6750 N.am  102  CYS102     -0.1954
     15  CA        36.9000  -20.6750   17.0290 C.3   102  CYS102      0.1843
     16  C         36.3130  -21.6430   16.0150 C.2   102  CYS102      0.2625
     17  O         35.2930  -22.2960   16.2740 O.2   102  CYS102     -0.2714
     18  CB        36.4560  -21.0350   18.4510 C.3   102  CYS102      0.0997
     19  SG        37.0350  -19.8800   19.7400 S.3   102  CYS102     -0.0797
     20  N         36.9680  -21.7360   14.8540 N.am  103  ALA103     -0.1963
     21  CA        36.2700  -22.1380   13.6300 C.3   103  ALA103      0.1728
     22  C         36.3110  -23.6180   13.2380 C.2   103  ALA103      0.2616
     23  O         35.3850  -24.1090   12.5740 O.2   103  ALA103     -0.2715
     24  CB        36.7350  -21.2730   12.4420 C.3   103  ALA103      0.0334
     25  N         37.3900  -24.3120   13.5840 N.am  104  ALA104     -0.1964
     26  CA        37.6010  -25.6540   13.0470 C.3   104  ALA104      0.1713
     27  C         36.7360  -26.6470   13.7840 C.2   104  ALA104      0.2458
     28  O         36.4980  -26.4750   14.9880 O.2   104  ALA104     -0.2730
     29  CB        39.0740  -26.0530   13.1230 C.3   104  ALA104      0.0333
     30  N         36.2870  -27.7130   13.0990 N.am  105  PRO105     -0.2716
     31  CA        36.6000  -28.1150   11.7260 C.3   105  PRO105      0.1536
     32  C         35.6970  -27.5280   10.6290 C.2   105  PRO105      0.2599
     33  O         35.6870  -28.0490    9.5040 O.2   105  PRO105     -0.2715
     34  CB        36.4260  -29.6380   11.7920 C.3   105  PRO105      0.0310
     35  CG        35.2930  -29.8150   12.7330 C.3   105  PRO105      0.0237
     36  CD        35.4390  -28.7200   13.7670 C.3   105  PRO105      0.0939
     37  N         34.9710  -26.4490   10.9350 N.am  106  GLY106     -0.1941
     38  CA        34.4050  -25.5750    9.9040 C.3   106  GLY106      0.2014
     39  C         32.9470  -25.7550    9.5310 C.2   106  GLY106      0.2639
     40  O         32.4970  -25.2020    8.5250 O.2   106  GLY106     -0.2714
     41  N         32.1880  -26.5210   10.3150 N.am  107  ASN107     -0.1958
     42  CA        30.7950  -26.7290    9.9610 C.3   107  ASN107      0.1819
     43  C         30.0450  -25.4010    9.9190 C.2   107  ASN107      0.2621
     44  O         29.3860  -25.0660    8.9310 O.2   107  ASN107     -0.2715
     45  CB        30.1260  -27.7090   10.9270 C.3   107  ASN107      0.1195
     46  CG        30.5470  -29.1480   10.6740 C.2   107  ASN107      0.2630
     47  OD1       30.7410  -29.9230   11.6060 O.2   107  ASN107     -0.2716
     48  ND2       30.6770  -29.5090    9.4090 N.am  107  ASN107     -0.0877
     49  N         30.1720  -24.6170   10.9880 N.am  108  LYS108     -0.1977
     50  CA        29.4980  -23.3330   11.0200 C.3   108  LYS108      0.1596
     51  C         30.0890  -22.3400   10.0060 C.2   108  LYS108      0.2287
     52  O         29.3540  -21.5270    9.4410 O.2   108  LYS108     -0.2864
     53  CB        29.4560  -22.7680   12.4510 C.3   108  LYS108      0.0298
     54  CG        28.5970  -23.6720   13.3670 C.3   108  LYS108      0.0038
     55  CD        28.6000  -23.2100   14.8380 C.3   108  LYS108      0.0206
     56  CE        28.0180  -24.2770   15.7570 C.3   108  LYS108      0.1093
     57  NZ        28.9020  -25.4960   15.8220 N.3   108  LYS108     -0.1314
     58  N         39.5260  -18.5440   12.5850 N.3   125  PHE125     -0.1227
     59  CA        40.7130  -18.8100   13.3960 C.3   125  PHE125      0.1736
     60  C         40.5660  -20.1110   14.1480 C.2   125  PHE125      0.2595
     61  O         39.4750  -20.4580   14.5920 O.2   125  PHE125     -0.2718
     62  CB        40.9190  -17.6790   14.4090 C.3   125  PHE125      0.0547
     63  CG        41.0540  -16.3260   13.7780 C.ar  125  PHE125     -0.0202
     64  CD1       42.2870  -15.9000   13.2700 C.ar  125  PHE125     -0.0042
     65  CD2       39.9480  -15.4740   13.6660 C.ar  125  PHE125     -0.0042
     66  CE1       42.4060  -14.6360   12.6710 C.ar  125  PHE125     -0.0003
     67  CE2       40.0560  -14.2070   13.0760 C.ar  125  PHE125     -0.0003
     68  CZ        41.2970  -13.7830   12.5790 C.ar  125  PHE125     -0.0000
     69  N         41.6780  -20.8240   14.3150 N.am  126  ASP126     -0.1960
     70  CA        41.7040  -21.9410   15.2440 C.3   126  ASP126      0.1840
     71  C         43.1550  -22.2260   15.5730 C.2   126  ASP126      0.2622
     72  O         44.0460  -21.8200   14.8280 O.2   126  ASP126     -0.2715
     73  CB        41.0290  -23.1770   14.6420 C.3   126  ASP126      0.1450
     74  CG        40.4680  -24.1050   15.6990 C.2   126  ASP126      0.3671
     75  OD1       41.2640  -24.7960   16.3720 O.co2 126  ASP126     -0.2456
     76  OD2       39.2210  -24.1740   15.8510 O.co2 126  ASP126     -0.2456
     77  N         43.3770  -22.9040   16.6880 N.am  127  LEU127     -0.1963
     78  CA        44.7290  -23.2910   17.0800 C.3   127  LEU127      0.1728
     79  C         45.0870  -24.7520   16.7710 C.2   127  LEU127      0.2616
     80  O         46.2670  -25.1160   16.7710 O.2   127  LEU127     -0.2715
     81  CB        44.9460  -22.9600   18.5530 C.3   127  LEU127      0.0311
     82  CG        45.2420  -21.4830   18.8540 C.3   127  LEU127      0.0022
     83  CD1       45.2900  -21.2740   20.3500 C.3   127  LEU127      0.0001
     84  CD2       46.5650  -21.0330   18.2120 C.3   127  LEU127      0.0001
     85  N         44.0840  -25.5870   16.4960 N.am  128  ASP128     -0.1971
     86  CA        44.3130  -27.0210   16.3070 C.3   128  ASP128      0.1709
     87  C         44.6340  -27.4210   14.8560 C.2   128  ASP128      0.2293
     88  O         43.7530  -27.3880   13.9900 O.2   128  ASP128     -0.2864
     89  CB        43.1240  -27.8240   16.8140 C.3   128  ASP128      0.1436
     90  CG        43.4340  -29.3010   16.9320 C.2   128  ASP128      0.3671
     91  OD1       44.1080  -29.6930   17.9080 O.co2 128  ASP128     -0.2456
     92  OD2       43.0000  -30.0750   16.0650 O.co2 128  ASP128     -0.2456
     93  N         42.2980  -30.2990   13.2620 N.3   131  ARG131     -0.1245
     94  CA        40.9630  -29.7980   12.9560 C.3   131  ARG131      0.1563
     95  C         40.9890  -28.7870   11.8070 C.2   131  ARG131      0.2260
     96  O         40.0470  -28.7280   11.0010 O.2   131  ARG131     -0.2867
     97  CB        40.3130  -29.1720   14.1960 C.3   131  ARG131      0.0307
     98  CG        39.6970  -30.1840   15.1510 C.3   131  ARG131      0.0489
     99  CD        38.9920  -29.4660   16.3160 C.3   131  ARG131      0.2205
    100  NE        38.1190  -30.3950   17.0100 N.pl3 131  ARG131     -0.0865
    101  CZ        36.9820  -30.0630   17.6130 C.cat 131  ARG131      0.5346
    102  NH1       36.5470  -28.8050   17.6000 N.pl3 131  ARG131      0.1354
    103  NH2       36.2680  -31.0030   18.2220 N.pl3 131  ARG131      0.1354
    104  N         45.7440  -19.2790   14.5560 N.3   152  GLU152     -0.1231
    105  CA        46.0070  -18.1600   15.4570 C.3   152  GLU152      0.1699
    106  C         45.1130  -18.2520   16.6850 C.2   152  GLU152      0.2592
    107  O         43.9810  -18.7460   16.6060 O.2   152  GLU152     -0.2718
    108  CB        45.7130  -16.8290   14.7620 C.3   152  GLU152      0.0402
    109  CG        46.7700  -16.3500   13.7940 C.3   152  GLU152      0.1161
    110  CD        46.5020  -14.9560   13.2610 C.2   152  GLU152      0.3649
    111  OE1       46.8620  -14.7010   12.0850 O.co2 152  GLU152     -0.2457
    112  OE2       45.9460  -14.1120   14.0030 O.co2 152  GLU152     -0.2457
    113  N         45.6260  -17.7530   17.8060 N.am  153  ASP153     -0.1960
    114  CA        44.8640  -17.5870   19.0430 C.3   153  ASP153      0.1840
    115  C         43.9150  -16.4160   18.8550 C.2   153  ASP153      0.2622
    116  O         44.3420  -15.3010   18.5530 O.2   153  ASP153     -0.2715
    117  CB        45.8560  -17.3080   20.1920 C.3   153  ASP153      0.1450
    118  CG        45.1820  -16.9890   21.5270 C.2   153  ASP153      0.3671
    119  OD1       43.9420  -17.0090   21.6430 O.co2 153  ASP153     -0.2456
    120  OD2       45.9250  -16.6940   22.4960 O.co2 153  ASP153     -0.2456
    121  N         42.6110  -16.6610   19.0180 N.am  154  PHE154     -0.1960
    122  CA        41.6350  -15.5960   18.8160 C.3   154  PHE154      0.1771
    123  C         41.9000  -14.4020   19.7360 C.2   154  PHE154      0.2619
    124  O         41.6460  -13.2620   19.3670 O.2   154  PHE154     -0.2715
    125  CB        40.1940  -16.1090   19.0250 C.3   154  PHE154      0.0574
    126  CG        39.1650  -15.0250   18.9600 C.ar  154  PHE154     -0.0200
    127  CD1       39.0140  -14.2640   17.7980 C.ar  154  PHE154     -0.0042
    128  CD2       38.3570  -14.7330   20.0570 C.ar  154  PHE154     -0.0042
    129  CE1       38.0730  -13.2400   17.7290 C.ar  154  PHE154     -0.0003
    130  CE2       37.4170  -13.7040   20.0010 C.ar  154  PHE154     -0.0003
    131  CZ        37.2710  -12.9530   18.8380 C.ar  154  PHE154     -0.0000
    132  N         42.4090  -14.6790   20.9310 N.am  155  LEU155     -0.1977
    133  CA        42.6820  -13.6090   21.8950 C.3   155  LEU155      0.1596
    134  C         43.8530  -12.7220   21.4440 C.2   155  LEU155      0.2287
    135  O         43.9950  -11.5840   21.9120 O.2   155  LEU155     -0.2864
    136  CB        42.9340  -14.1990   23.2840 C.3   155  LEU155      0.0297
    137  CG        41.7550  -14.9200   23.9450 C.3   155  LEU155      0.0022
    138  CD1       42.1440  -15.4240   25.3280 C.3   155  LEU155      0.0001
    139  CD2       40.5530  -14.0080   24.0320 C.3   155  LEU155      0.0001
    140  N         32.0890  -19.8750   19.0420 N.3   173  ASP173     -0.1225
    141  CA        31.6300  -21.2280   19.3350 C.3   173  ASP173      0.1790
    142  C         32.8180  -21.9700   19.9550 C.2   173  ASP173      0.2440
    143  O         33.4180  -22.8300   19.3170 O.2   173  ASP173     -0.2733
    144  CB        31.1850  -21.8540   17.9980 C.3   173  ASP173      0.1423
    145  CG        30.6570  -23.2880   18.1250 C.2   173  ASP173      0.3668
    146  OD1       29.8890  -23.6130   19.0680 O.co2 173  ASP173     -0.2456
    147  OD2       30.9830  -24.1040   17.2210 O.co2 173  ASP173     -0.2456
    148  N         33.1810  -21.6140   21.1940 N.am  174  PRO174     -0.2718
    149  CA        34.4260  -22.0810   21.8240 C.3   174  PRO174      0.1535
    150  C         34.3460  -23.5040   22.3580 C.2   174  PRO174      0.2599
    151  O         33.2520  -24.0400   22.5100 O.2   174  PRO174     -0.2715
    152  CB        34.5950  -21.1040   22.9880 C.3   174  PRO174      0.0310
    153  CG        33.2020  -20.7800   23.3820 C.3   174  PRO174      0.0237
    154  CD        32.4290  -20.7070   22.0830 C.3   174  PRO174      0.0939
    155  N         35.5060  -24.0990   22.6460 N.am  175  SER175     -0.1936
    156  CA        35.5450  -25.4170   23.2850 C.3   175  SER175      0.2055
    157  C         34.7480  -25.3590   24.5840 C.2   175  SER175      0.2643
    158  O         34.7800  -24.3440   25.2830 O.2   175  SER175     -0.2714
    159  CB        36.9860  -25.8260   23.6180 C.3   175  SER175      0.2130
    160  OG        37.8400  -25.7230   22.4850 O.3   175  SER175     -0.2179
    161  N         34.0650  -26.4530   24.9100 N.am  176  CYS176     -0.1967
    162  CA        33.2440  -26.5070   26.1170 C.3   176  CYS176      0.1712
    163  C         33.2830  -27.8820   26.7940 C.2   176  CYS176      0.2296
    164  O         33.9080  -28.8210   26.2800 O.2   176  CYS176     -0.2864
    165  CB        31.8030  -26.0870   25.8080 C.3   176  CYS176      0.0983
    166  SG        30.9900  -27.2480   24.7420 S.3   176  CYS176     -0.0798
    167  N         38.1640  -19.3390   29.5180 N.3   187  PHE187     -0.1241
    168  CA        38.4110  -18.9900   28.1330 C.3   187  PHE187      0.1605
    169  C         37.1650  -18.4170   27.4530 C.2   187  PHE187      0.2264
    170  O         37.2590  -17.4530   26.7010 O.2   187  PHE187     -0.2867
    171  CB        38.9650  -20.1460   27.3100 C.3   187  PHE187      0.0534
    172  CG        39.1180  -19.7880   25.8600 C.ar  187  PHE187     -0.0203
    173  CD1       40.1410  -18.9350   25.4510 C.ar  187  PHE187     -0.0042
    174  CD2       38.1920  -20.2350   24.9070 C.ar  187  PHE187     -0.0042
    175  CE1       40.2610  -18.5580   24.1110 C.ar  187  PHE187     -0.0003
    176  CE2       38.3080  -19.8660   23.5700 C.ar  187  PHE187     -0.0003
    177  CZ        39.3530  -19.0270   23.1680 C.ar  187  PHE187     -0.0000
    178  N         28.1320  -26.5130   23.1960 N.3   209  CYS209     -0.1235
    179  CA        27.3660  -27.7570   23.2390 C.3   209  CYS209      0.1677
    180  C         27.3130  -28.2450   24.6800 C.2   209  CYS209      0.2270
    181  O         27.3230  -29.4600   24.9380 O.2   209  CYS209     -0.2867
    182  CB        27.9550  -28.8360   22.3220 C.3   209  CYS209      0.0956
    183  SG        29.6910  -29.1690   22.5650 S.3   209  CYS209     -0.0801
@<TRIPOS>BOND
     1    40    39    2
     2    44    43    2
     3    48    46   am
     4    52    51    2
     5    33    32    2
     6    39    38    1
     7    39    41   am
     8    38    37    1
     9    43    42    1
    10    43    49   am
    11    42    41    1
    12    42    45    1
    13    51    50    1
    14    32    37   am
    15    32    31    1
    16    46    45    1
    17    46    47    2
    18    49    50    1
    19    96    95    2
    20    50    53    1
    21    31    34    1
    22    31    30    1
    23    34    35    1
    24    95    94    1
    25     8     6   ar
    26     5     6    1
    27     5     2    1
    28   111   110   ar
    29     1     2    1
    30    24    21    1
    31    53    54    1
    32    23    22    2
    33    68    66   ar
    34    68    67   ar
    35    58    59    1
    36     6     7   ar
    37    66    64   ar
    38    35    36    1
    39    94    93    1
    40    94    97    1
    41     2     3    1
    42    26    29    1
    43    26    25    1
    44    26    27    1
    45    67    65   ar
    46    30    36    1
    47    30    27   am
    48    22    25   am
    49    22    21    1
    50   110   109    1
    51   110   112   ar
    52    64    63   ar
    53    54    55    1
    54    59    60    1
    55    59    62    1
    56     4     3    2
    57    21    20    1
    58    65    63   ar
    59    63    62    1
    60    27    28    2
    61   109   108    1
    62     3     9   am
    63    88    87    2
    64    60    69   am
    65    60    61    2
    66    97    98    1
    67    69    70    1
    68   104   105    1
    69    73    70    1
    70    73    74    1
    71   108   105    1
    72    72    71    2
    73    55    56    1
    74    20    16   am
    75    87    86    1
    76    98    99    1
    77    70    71    1
    78     9    10    1
    79   105   106    1
    80    71    77   am
    81    74    76   ar
    82    74    75   ar
    83    56    57    1
    84    16    17    2
    85    16    15    1
    86    92    90   ar
    87    10    11    1
    88    10    13    1
    89    86    85    1
    90    86    89    1
    91    99   100    1
    92    85    79   am
    93   107   106    2
    94    11    14   am
    95    11    12    2
    96    14    15    1
    97   106   113   am
    98    77    78    1
    99    79    80    2
   100    79    78    1
   101    89    90    1
   102    90    91   ar
   103   100   101    2
   104    15    18    1
   105    78    81    1
   106   147   145   ar
   107   102   101    1
   108   101   103    1
   109   129   127   ar
   110   129   131   ar
   111   127   126   ar
   112   113   114    1
   113   144   145    1
   114   144   141    1
   115   145   146   ar
   116    84    82    1
   117    18    19    1
   118    81    82    1
   119   116   115    2
   120   122   121    1
   121   122   125    1
   122   122   123    1
   123   131   130   ar
   124    82    83    1
   125   115   121   am
   126   115   114    1
   127   126   125    1
   128   126   128   ar
   129   140   141    1
   130   114   117    1
   131   143   142    2
   132   141   142    1
   133   124   123    2
   134   123   132   am
   135   142   148   am
   136   130   128   ar
   137   117   118    1
   138   132   133    1
   139   148   149    1
   140   148   154    1
   141   134   133    1
   142   134   135    2
   143   118   119   ar
   144   118   120   ar
   145   149   150    1
   146   149   152    1
   147   133   136    1
   148   154   153    1
   149   182   183    1
   150   182   179    1
   151   150   151    2
   152   150   155   am
   153   160   159    1
   154   155   156    1
   155   152   153    1
   156   177   176   ar
   157   177   175   ar
   158   178   179    1
   159   179   180    1
   160   136   137    1
   161   156   159    1
   162   156   157    1
   163   176   174   ar
   164   137   139    1
   165   137   138    1
   166   175   173   ar
   167   157   161   am
   168   157   158    2
   169   180   181    2
   170   166   165    1
   171   174   172   ar
   172   161   162    1
   173   173   172   ar
   174   165   162    1
   175   172   171    1
   176   162   163    1
   177   164   163    2
   178   170   169    2
   179   171   168    1
   180   169   168    1
   181   168   167    1
