@<TRIPOS>MOLECULE
tmp/2b9iA00.pdb
 193 181 0 0 0
SMALL
GASTEIGER

@<TRIPOS>ATOM
      1  N         44.1450    7.0970   33.8470 N.3    19  LEU19      -0.1231
      2  CA        42.7590    7.2310   33.4330 C.3    19  LEU19       0.1693
      3  C         41.8030    7.7230   34.5110 C.2    19  LEU19       0.2593
      4  O         40.7670    8.2960   34.2140 O.2    19  LEU19      -0.2718
      5  CB        42.2580    5.8920   32.9100 C.3    19  LEU19       0.0284
      6  CG        43.1660    5.1660   31.9140 C.3    19  LEU19       0.0019
      7  CD1       42.5220    3.8440   31.4740 C.3    19  LEU19       0.0001
      8  CD2       43.4060    6.0670   30.7400 C.3    19  LEU19       0.0001
      9  N         42.1200    7.4690   35.7660 N.am   20  GLY20      -0.1942
     10  CA        41.2310    7.9100   36.8170 C.3    20  GLY20       0.2014
     11  C         42.0110    8.1310   38.0890 C.2    20  GLY20       0.2639
     12  O         42.9160    7.3660   38.4240 O.2    20  GLY20      -0.2714
     13  N         41.6810    9.2000   38.7940 N.am   21  GLU21      -0.1963
     14  CA        42.3740    9.4680   40.0300 C.3    21  GLU21       0.1733
     15  C         41.4180    9.9080   41.0950 C.2    21  GLU21       0.2616
     16  O         40.7570   10.9140   40.9520 O.2    21  GLU21      -0.2715
     17  CB        43.4330   10.5270   39.8330 C.3    21  GLU21       0.0429
     18  CG        44.1150   10.8470   41.1230 C.3    21  GLU21       0.1163
     19  CD        45.3720   11.6640   40.9370 C.2    21  GLU21       0.3649
     20  OE1       45.4390   12.4720   39.9780 O.co2  21  GLU21      -0.2457
     21  OE2       46.2870   11.4990   41.7750 O.co2  21  GLU21      -0.2457
     22  N         41.3520    9.1410   42.1730 N.am   22  GLY22      -0.1955
     23  CA        40.4480    9.4690   43.2580 C.3    22  GLY22       0.1869
     24  C         41.0510    9.0570   44.5770 C.2    22  GLY22       0.2309
     25  O         42.0350    8.3310   44.6190 O.2    22  GLY22      -0.2863
     26  N         40.1560    6.9740   46.4970 N.3    24  TYR24      -0.1227
     27  CA        40.0850    5.5600   46.7590 C.3    24  TYR24       0.1736
     28  C         40.8800    4.7840   45.7620 C.2    24  TYR24       0.2596
     29  O         41.6990    3.9410   46.1190 O.2    24  TYR24      -0.2718
     30  CB        38.6400    5.0720   46.7300 C.3    24  TYR24       0.0548
     31  CG        38.5340    3.5710   46.6760 C.ar   24  TYR24      -0.0200
     32  CD1       38.9780    2.7860   47.7400 C.ar   24  TYR24      -0.0009
     33  CD2       38.0080    2.9210   45.5550 C.ar   24  TYR24      -0.0009
     34  CE1       38.8980    1.3770   47.6880 C.ar   24  TYR24       0.0417
     35  CE2       37.9360    1.5190   45.5010 C.ar   24  TYR24       0.0417
     36  CZ        38.3840    0.7610   46.5670 C.ar   24  TYR24       0.1957
     37  OH        38.3570   -0.6150   46.5070 O.3    24  TYR24      -0.2866
     38  N         40.6230    5.0530   44.4950 N.am   25  GLY25      -0.1957
     39  CA        41.3170    4.3100   43.4770 C.3    25  GLY25       0.1869
     40  C         41.9700    5.2060   42.4600 C.2    25  GLY25       0.2309
     41  O         41.5670    6.3500   42.2680 O.2    25  GLY25      -0.2863
     42  N         43.3800    4.7010   38.4630 N.3    27  VAL27      -0.1245
     43  CA        43.4040    3.7850   37.3370 C.3    27  VAL27       0.1561
     44  C         44.3110    4.2030   36.2010 C.2    27  VAL27       0.2260
     45  O         44.1650    5.2880   35.6530 O.2    27  VAL27      -0.2867
     46  CB        41.9940    3.5980   36.7410 C.3    27  VAL27       0.0252
     47  CG1       42.0340    2.5010   35.6820 C.3    27  VAL27       0.0019
     48  CG2       40.9710    3.2860   37.8700 C.3    27  VAL27       0.0019
     49  N         44.3690   -2.4880   32.0190 N.3    40  ALA40      -0.1245
     50  CA        44.0130   -1.4450   32.9530 C.3    40  ALA40       0.1562
     51  C         44.4150   -1.9240   34.3500 C.2    40  ALA40       0.2260
     52  O         44.1510   -3.0730   34.7080 O.2    40  ALA40      -0.2867
     53  CB        42.5050   -1.1650   32.8760 C.3    40  ALA40       0.0290
     54  N         44.2120   -0.8890   38.3960 N.3    42  LYS42      -0.1245
     55  CA        43.6220   -0.0840   39.4400 C.3    42  LYS42       0.1561
     56  C         44.3980   -0.3010   40.7300 C.2    42  LYS42       0.2260
     57  O         44.4940   -1.4160   41.2180 O.2    42  LYS42      -0.2867
     58  CB        42.1550   -0.4670   39.6450 C.3    42  LYS42       0.0271
     59  CG        41.4400    0.4590   40.6110 C.3    42  LYS42       0.0035
     60  CD        39.9500    0.1590   40.6870 C.3    42  LYS42       0.0206
     61  CE        39.2160    1.0720   41.6690 C.3    42  LYS42       0.1093
     62  NZ        37.7390    0.9160   41.5270 N.3    42  LYS42      -0.1314
     63  N         35.9200   -1.9440   51.3040 N.3    55  ARG55      -0.1245
     64  CA        35.5330   -1.6220   49.9410 C.3    55  ARG55       0.1563
     65  C         36.3380   -2.5070   49.0070 C.2    55  ARG55       0.2260
     66  O         35.7950   -3.2330   48.1350 O.2    55  ARG55      -0.2867
     67  CB        35.8290   -0.1550   49.6670 C.3    55  ARG55       0.0307
     68  CG        35.4190    0.2930   48.3090 C.3    55  ARG55       0.0489
     69  CD        35.5850    1.8140   48.1370 C.3    55  ARG55       0.2205
     70  NE        35.2120    2.2250   46.7810 N.pl3  55  ARG55      -0.0865
     71  CZ        34.9970    3.4820   46.4180 C.cat  55  ARG55       0.5346
     72  NH1       35.1120    4.4510   47.3250 N.pl3  55  ARG55       0.1354
     73  NH2       34.6950    3.7660   45.1540 N.pl3  55  ARG55       0.1354
     74  N         34.8950   -5.1940   46.3920 N.3    59  GLU59      -0.1245
     75  CA        35.0630   -5.0090   44.9720 C.3    59  GLU59       0.1567
     76  C         35.7210   -6.2290   44.3710 C.2    59  GLU59       0.2260
     77  O         35.3380   -6.6750   43.3020 O.2    59  GLU59      -0.2867
     78  CB        35.8860   -3.7450   44.7120 C.3    59  GLU59       0.0388
     79  CG        36.3060   -3.5460   43.2740 C.3    59  GLU59       0.1160
     80  CD        36.6700   -2.0950   42.9450 C.2    59  GLU59       0.3649
     81  OE1       37.2890   -1.3910   43.7870 O.co2  59  GLU59      -0.2457
     82  OE2       36.3530   -1.6710   41.8200 O.co2  59  GLU59      -0.2457
     83  N         32.7590   -5.5320   34.0170 N.3    72  ILE72      -0.1245
     84  CA        34.1670   -5.5100   33.7280 C.3    72  ILE72       0.1561
     85  C         34.9090   -6.7680   34.1790 C.2    72  ILE72       0.2260
     86  O         34.7290   -7.2630   35.2770 O.2    72  ILE72      -0.2867
     87  CB        34.8360   -4.2360   34.2920 C.3    72  ILE72       0.0252
     88  CG1       36.2540   -4.1210   33.7130 C.3    72  ILE72       0.0019
     89  CG2       34.8580   -4.2420   35.8070 C.3    72  ILE72       0.0019
     90  CD1       36.3000   -4.4050   32.2290 C.3    72  ILE72       0.0001
     91  N         42.8630   -5.3960   35.0560 N.3    93  GLN93      -0.1231
     92  CA        41.7000   -5.7370   34.2660 C.3    93  GLN93       0.1698
     93  C         41.7540   -5.3610   32.7830 C.2    93  GLN93       0.2592
     94  O         42.6650   -4.6540   32.3070 O.2    93  GLN93      -0.2718
     95  CB        40.4620   -5.1200   34.9010 C.3    93  GLN93       0.0381
     96  CG        40.6130   -3.7180   35.4170 C.3    93  GLN93       0.0905
     97  CD        39.3440   -3.2620   36.1180 C.2    93  GLN93       0.2608
     98  OE1       38.5110   -2.5420   35.5470 O.2    93  GLN93      -0.2717
     99  NE2       39.1710   -3.7010   37.3540 N.am   93  GLN93      -0.0878
    100  N         40.7360   -5.8350   32.0810 N.am   94  GLU94      -0.1966
    101  CA        40.5500   -5.5630   30.6730 C.3    94  GLU94       0.1733
    102  C         40.5200   -4.0480   30.4930 C.2    94  GLU94       0.2616
    103  O         39.8710   -3.3430   31.2510 O.2    94  GLU94      -0.2715
    104  CB        39.2270   -6.1670   30.2240 C.3    94  GLU94       0.0429
    105  CG        38.9100   -6.0410   28.7200 C.3    94  GLU94       0.1163
    106  CD        37.4440   -6.3630   28.4020 C.2    94  GLU94       0.3649
    107  OE1       36.6980   -6.7900   29.3250 O.co2  94  GLU94      -0.2457
    108  OE2       37.0410   -6.1910   27.2250 O.co2  94  GLU94      -0.2457
    109  N         41.2360   -3.5530   29.5010 N.am   95  LEU95      -0.1963
    110  CA        41.2860   -2.1300   29.2340 C.3    95  LEU95       0.1728
    111  C         40.1290   -1.7020   28.3770 C.2    95  LEU95       0.2616
    112  O         39.8430   -2.3170   27.3440 O.2    95  LEU95      -0.2715
    113  CB        42.5670   -1.7750   28.5030 C.3    95  LEU95       0.0311
    114  CG        42.7470   -0.3020   28.1520 C.3    95  LEU95       0.0022
    115  CD1       42.9500    0.5300   29.4560 C.3    95  LEU95       0.0001
    116  CD2       43.9810   -0.1640   27.3010 C.3    95  LEU95       0.0001
    117  N         39.4560   -0.6420   28.8090 N.am   96  MET96      -0.1963
    118  CA        38.3270   -0.1100   28.0460 C.3    96  MET96       0.1736
    119  C         38.7360    1.2510   27.5210 C.2    96  MET96       0.2616
    120  O         39.6480    1.8540   28.0620 O.2    96  MET96      -0.2715
    121  CB        37.1170    0.0080   28.9540 C.3    96  MET96       0.0427
    122  CG        36.6340   -1.3190   29.4980 C.3    96  MET96       0.0599
    123  SD        35.8480   -2.4400   28.3000 S.3    96  MET96      -0.1393
    124  CE        34.4130   -1.4760   27.7590 C.3    96  MET96       0.0692
    125  N         38.0960    1.7450   26.4710 N.am   97  GLN97      -0.1963
    126  CA        38.4870    3.0600   25.9580 C.3    97  GLN97       0.1733
    127  C         37.9710    4.2930   26.7090 C.2    97  GLN97       0.2617
    128  O         38.5620    5.3370   26.6060 O.2    97  GLN97      -0.2715
    129  CB        38.2010    3.1910   24.4590 C.3    97  GLN97       0.0408
    130  CG        37.4170    2.0860   23.8690 C.3    97  GLN97       0.0908
    131  CD        38.1230    1.5010   22.6680 C.2    97  GLN97       0.2608
    132  OE1       39.3520    1.4390   22.6560 O.2    97  GLN97      -0.2717
    133  NE2       37.3580    1.0500   21.6600 N.am   97  GLN97      -0.0878
    134  N         36.8720    4.1990   27.4320 N.am   98  THR98      -0.1937
    135  CA        36.3930    5.3300   28.2640 C.3    98  THR98       0.2028
    136  C         35.2000    4.9710   29.1130 C.2    98  THR98       0.2642
    137  O         34.7890    3.8290   29.1740 O.2    98  THR98      -0.2714
    138  CB        35.9510    6.6360   27.4740 C.3    98  THR98       0.1808
    139  OG1       35.4920    6.3060   26.1520 O.3    98  THR98      -0.2208
    140  CG2       37.0840    7.6610   27.4740 C.3    98  THR98       0.0379
    141  N         34.6430    5.9740   29.7690 N.am   99  ASP99      -0.1971
    142  CA        33.4530    5.7790   30.5750 C.3    99  ASP99       0.1709
    143  C         32.2780    6.5430   29.9550 C.2    99  ASP99       0.2293
    144  O         32.4560    7.4360   29.1170 O.2    99  ASP99      -0.2864
    145  CB        33.7130    6.2370   31.9820 C.3    99  ASP99       0.1436
    146  CG        34.2650    7.6090   32.0280 C.2    99  ASP99       0.3671
    147  OD1       33.4630    8.5810   32.0120 O.co2  99  ASP99      -0.2456
    148  OD2       35.5050    7.7120   32.0660 O.co2  99  ASP99      -0.2456
    149  N         26.3430    5.1190   38.0720 N.3   139  LYS139     -0.1245
    150  CA        26.3650    6.4420   37.4420 C.3   139  LYS139      0.1561
    151  C         27.1840    6.3200   36.1600 C.2   139  LYS139      0.2260
    152  O         27.9010    5.3520   35.9760 O.2   139  LYS139     -0.2867
    153  CB        26.9410    7.5050   38.3690 C.3   139  LYS139      0.0271
    154  CG        28.2090    7.1420   39.0830 C.3   139  LYS139      0.0035
    155  CD        28.6850    8.3390   39.8820 C.3   139  LYS139      0.0206
    156  CE        30.0060    8.0660   40.5420 C.3   139  LYS139      0.1093
    157  NZ        30.6150    9.3350   41.0590 N.3   139  LYS139     -0.1314
    158  N         30.0100    7.4980   35.1010 N.3   141  SER141     -0.1202
    159  CA        31.4430    7.2900   35.1390 C.3   141  SER141      0.2020
    160  C         31.8740    5.8680   35.5370 C.2   141  SER141      0.2618
    161  O         33.0890    5.5270   35.4430 O.2   141  SER141     -0.2717
    162  CB        32.1250    8.3500   36.0190 C.3   141  SER141      0.2103
    163  OG        32.2670    7.9440   37.3650 O.3   141  SER141     -0.2182
    164  N         30.9000    5.0390   35.9460 N.am  142  ASN142     -0.1974
    165  CA        31.1860    3.6620   36.3260 C.3   142  ASN142      0.1688
    166  C         30.7230    2.6460   35.3060 C.2   142  ASN142      0.2292
    167  O         30.6410    1.4430   35.5960 O.2   142  ASN142     -0.2864
    168  CB        30.5760    3.3070   37.6710 C.3   142  ASN142      0.1181
    169  CG        31.2280    4.0220   38.8040 C.2   142  ASN142      0.2629
    170  OD1       32.4030    4.4280   38.7240 O.2   142  ASN142     -0.2716
    171  ND2       30.4820    4.1670   39.9030 N.am  142  ASN142     -0.0877
    172  N         31.9060    1.5020   31.6550 N.3   144  LEU144     -0.1245
    173  CA        33.0300    1.5670   30.7260 C.3   144  LEU144      0.1561
    174  C         32.5500    1.2590   29.2980 C.2   144  LEU144      0.2260
    175  O         31.7450    0.3390   29.0750 O.2   144  LEU144     -0.2867
    176  CB        34.1220    0.5890   31.1900 C.3   144  LEU144      0.0270
    177  CG        34.5320    0.8130   32.6600 C.3   144  LEU144      0.0019
    178  CD1       35.5120   -0.2790   33.1230 C.3   144  LEU144      0.0001
    179  CD2       35.1660    2.1750   32.8340 C.3   144  LEU144      0.0001
    180  N         31.5820   -1.1440   36.3610 N.3   154  CYS154     -0.1221
    181  CA        32.7800   -1.2750   37.1860 C.3   154  CYS154      0.1808
    182  C         32.5050   -0.6390   38.5610 C.2   154  CYS154      0.2601
    183  O         31.4240   -0.1080   38.7940 O.2   154  CYS154     -0.2717
    184  CB        33.9650   -0.5570   36.5220 C.3   154  CYS154      0.0970
    185  SG        33.8810    1.2680   36.5970 S.3   154  CYS154     -0.0800
    186  N         33.4790   -0.6950   39.4610 N.am  155  ASP155     -0.1973
    187  CA        33.3520   -0.0800   40.7960 C.3   155  ASP155      0.1709
    188  C         32.3380   -0.7850   41.6790 C.2   155  ASP155      0.2293
    189  O         31.2590   -0.2570   41.9390 O.2   155  ASP155     -0.2864
    190  CB        32.9390    1.3950   40.6490 C.3   155  ASP155      0.1436
    191  CG        33.7350    2.3480   41.5560 C.2   155  ASP155      0.3671
    192  OD1       34.7260    1.9530   42.2150 O.co2 155  ASP155     -0.2456
    193  OD2       33.3730    3.5360   41.5750 O.co2 155  ASP155     -0.2456
@<TRIPOS>BOND
     1   133   131   am
     2   132   131    2
     3   131   130    1
     4   130   129    1
     5   129   126    1
     6   126   125    1
     7   126   127    1
     8   139   138    1
     9   125   119   am
    10   128   127    2
    11   127   134   am
    12   108   106   ar
    13   116   114    1
    14   112   111    2
    15   134   135    1
    16   138   140    1
    17   138   135    1
    18   119   118    1
    19   119   120    2
    20   124   123    1
    21   118   117    1
    22   118   121    1
    23   114   113    1
    24   114   115    1
    25   135   136    1
    26   123   122    1
    27   111   117   am
    28   111   110    1
    29   106   105    1
    30   106   107   ar
    31   113   110    1
    32   105   104    1
    33   121   122    1
    34   175   174    2
    35   136   137    2
    36   136   141   am
    37   144   143    2
    38   110   109    1
    39   174   173    1
    40   109   102   am
    41   141   142    1
    42   143   142    1
    43   104   101    1
    44   102   101    1
    45   102   103    2
    46   142   145    1
    47   101   100    1
    48   173   176    1
    49   173   172    1
    50     8     6    1
    51   176   177    1
    52     7     6    1
    53     6     5    1
    54   145   146    1
    55   147   146   ar
    56    49    50    1
    57   146   148   ar
    58   100    93   am
    59    90    88    1
    60    94    93    2
    61   177   179    1
    62   177   178    1
    63    93    92    1
    64    53    50    1
    65     5     2    1
    66    50    51    1
    67     2     1    1
    68     2     3    1
    69    88    87    1
    70    84    83    1
    71    84    85    1
    72    84    87    1
    73    85    86    2
    74     4     3    2
    75    92    95    1
    76    92    91    1
    77    87    89    1
    78    51    52    2
    79     3     9   am
    80    95    96    1
    81   158   159    1
    82   159   160    1
    83   159   162    1
    84   166   167    2
    85   166   165    1
    86    96    97    1
    87   161   160    2
    88   160   164   am
    89    98    97    2
    90    45    44    2
    91    47    46    1
    92     9    10    1
    93   164   165    1
    94   152   151    2
    95   162   163    1
    96    97    99   am
    97   151   150    1
    98    44    43    1
    99   165   168    1
   100   180   181    1
   101   184   185    1
   102   184   181    1
   103    46    43    1
   104    46    48    1
   105    10    11    1
   106   181   182    1
   107    43    42    1
   108   150   149    1
   109   150   153    1
   110   168   169    1
   111    11    12    2
   112    11    13   am
   113   153   154    1
   114    54    55    1
   115   182   183    2
   116   182   186   am
   117   170   169    2
   118    13    14    1
   119   169   171   am
   120   154   155    1
   121    55    58    1
   122    55    56    1
   123   186   187    1
   124    58    59    1
   125    17    14    1
   126    17    18    1
   127   155   156    1
   128    20    19   ar
   129    14    15    1
   130   156   157    1
   131    59    60    1
   132   190   187    1
   133   190   191    1
   134    60    61    1
   135    56    57    2
   136   187   188    1
   137    19    18    1
   138    19    21   ar
   139    16    15    2
   140    15    22   am
   141    62    61    1
   142   191   193   ar
   143   191   192   ar
   144   188   189    2
   145    82    80   ar
   146    22    23    1
   147    41    40    2
   148    40    39    1
   149    80    79    1
   150    80    81   ar
   151    23    24    1
   152    79    78    1
   153    77    76    2
   154    39    38    1
   155    76    75    1
   156    38    28   am
   157    24    25    2
   158    78    75    1
   159    75    74    1
   160    73    71    1
   161    35    33   ar
   162    35    36   ar
   163    33    31   ar
   164    28    29    2
   165    28    27    1
   166    71    70    2
   167    71    72    1
   168    26    27    1
   169    37    36    1
   170    36    34   ar
   171    31    30    1
   172    31    32   ar
   173    30    27    1
   174    70    69    1
   175    34    32   ar
   176    66    65    2
   177    69    68    1
   178    68    67    1
   179    65    64    1
   180    67    64    1
   181    64    63    1
