@<TRIPOS>MOLECULE
tmp/2b9jA00.pdb
 227 220 0 0 0
SMALL
GASTEIGER

@<TRIPOS>ATOM
      1  N         29.6670  -10.3020   30.5570 N.3    69  GLU69      -0.1245
      2  CA        30.0940   -9.3130   29.5660 C.3    69  GLU69       0.1567
      3  C         30.0050   -7.8540   29.9850 C.2    69  GLU69       0.2260
      4  O         30.7560   -7.0280   29.4890 O.2    69  GLU69      -0.2867
      5  CB        29.3140   -9.5010   28.2570 C.3    69  GLU69       0.0388
      6  CG        29.8660  -10.5980   27.3770 C.3    69  GLU69       0.1160
      7  CD        28.8280  -11.1670   26.4150 C.2    69  GLU69       0.3649
      8  OE1       27.8370  -10.4560   26.1120 O.co2  69  GLU69      -0.2457
      9  OE2       29.0150  -12.3220   25.9520 O.co2  69  GLU69      -0.2457
     10  N         38.6750    1.8060   26.9350 N.3    97  GLN97      -0.1231
     11  CA        39.1360    3.0770   26.3940 C.3    97  GLN97       0.1698
     12  C         38.6650    4.3280   27.1670 C.2    97  GLN97       0.2592
     13  O         39.3490    5.3610   27.1930 O.2    97  GLN97      -0.2718
     14  CB        38.7320    3.1470   24.9060 C.3    97  GLN97       0.0381
     15  CG        39.3190    1.9760   24.0760 C.3    97  GLN97       0.0905
     16  CD        38.8010    1.9150   22.6230 C.2    97  GLN97       0.2608
     17  OE1       38.9430    2.8700   21.8730 O.2    97  GLN97      -0.2717
     18  NE2       38.2120    0.7860   22.2360 N.am   97  GLN97      -0.0878
     19  N         37.5080    4.2550   27.8090 N.am   98  THR98      -0.1953
     20  CA        37.0420    5.4230   28.5630 C.3    98  THR98       0.1897
     21  C         35.8210    5.0810   29.4600 C.2    98  THR98       0.2313
     22  O         35.5040    3.9160   29.6390 O.2    98  THR98      -0.2863
     23  CB        36.7140    6.5680   27.5500 C.3    98  THR98       0.1794
     24  OG1       36.2940    7.7490   28.2480 O.3    98  THR98      -0.2208
     25  CG2       35.6300    6.1170   26.5620 C.3    98  THR98       0.0378
     26  N         32.6710   10.6130   30.6160 N.3   102  ARG102     -0.1231
     27  CA        33.5180   11.2630   29.6150 C.3   102  ARG102      0.1694
     28  C         32.8240   11.2480   28.2530 C.2   102  ARG102      0.2591
     29  O         32.8870   12.2160   27.5080 O.2   102  ARG102     -0.2718
     30  CB        34.8640   10.5430   29.5290 C.3   102  ARG102      0.0321
     31  CG        35.8910   11.2480   28.6840 C.3   102  ARG102      0.0489
     32  CD        36.2230   12.6230   29.2500 C.3   102  ARG102      0.2205
     33  NE        37.2840   13.2830   28.4940 N.pl3 102  ARG102     -0.0865
     34  CZ        37.5790   14.5740   28.5940 C.cat 102  ARG102      0.5346
     35  NH1       36.8840   15.3500   29.4190 N.pl3 102  ARG102      0.1354
     36  NH2       38.5690   15.0870   27.8720 N.pl3 102  ARG102      0.1354
     37  N         32.1520   10.1430   27.9460 N.am  103  VAL103     -0.1980
     38  CA        31.4390   10.0160   26.6830 C.3   103  VAL103      0.1595
     39  C         30.2710   10.9780   26.6190 C.2   103  VAL103      0.2287
     40  O         30.1450   11.7440   25.6640 O.2   103  VAL103     -0.2864
     41  CB        30.8760    8.5800   26.4630 C.3   103  VAL103      0.0276
     42  CG1       29.9090    8.5840   25.2510 C.3   103  VAL103      0.0022
     43  CG2       32.0310    7.5700   26.2360 C.3   103  VAL103      0.0022
     44  N         31.4990   14.4680   26.0060 N.3   106  THR106     -0.1203
     45  CA        32.2680   14.7950   24.8140 C.3   106  THR106      0.1994
     46  C         31.6070   14.3110   23.5270 C.2   106  THR106      0.2618
     47  O         32.1460   14.5230   22.4430 O.2   106  THR106     -0.2717
     48  CB        33.6810   14.1640   24.8520 C.3   106  THR106      0.1784
     49  OG1       33.5630   12.7330   24.8460 O.3   106  THR106     -0.2211
     50  CG2       34.4700   14.6380   26.0850 C.3   106  THR106      0.0376
     51  N         30.4510   13.6640   23.6300 N.am  107  GLN107     -0.1965
     52  CA        29.8120   13.1600   22.4300 C.3   107  GLN107      0.1733
     53  C         28.3140   13.1550   22.2710 C.2   107  GLN107      0.2616
     54  O         27.5420   12.8890   23.1990 O.2   107  GLN107     -0.2715
     55  CB        30.3200   11.7720   22.1370 C.3   107  GLN107      0.0408
     56  CG        31.5040   11.8580   21.2610 C.3   107  GLN107      0.0908
     57  CD        32.1640   10.5610   21.1180 C.2   107  GLN107      0.2608
     58  OE1       31.5560    9.5970   20.6550 O.2   107  GLN107     -0.2717
     59  NE2       33.4260   10.4980   21.5180 N.am  107  GLN107     -0.0878
     60  N         27.9180   13.4350   21.0400 N.am  108  MET108     -0.1963
     61  CA        26.5250   13.4730   20.6920 C.3   108  MET108      0.1736
     62  C         26.1360   12.0380   20.3950 C.2   108  MET108      0.2616
     63  O         26.6120   11.4320   19.4330 O.2   108  MET108     -0.2715
     64  CB        26.3410   14.3750   19.4780 C.3   108  MET108      0.0427
     65  CG        26.9310   15.7800   19.6850 C.3   108  MET108      0.0599
     66  SD        26.0310   16.8400   20.8530 S.3   108  MET108     -0.1393
     67  CE        24.9180   17.7150   19.6810 C.3   108  MET108      0.0692
     68  N         25.2900   11.4820   21.2490 N.am  109  LEU109     -0.1977
     69  CA        24.8690   10.1140   21.0660 C.3   109  LEU109      0.1596
     70  C         23.5270   10.0100   20.3780 C.2   109  LEU109      0.2287
     71  O         22.6100   10.7810   20.6300 O.2   109  LEU109     -0.2864
     72  CB        24.8200    9.4180   22.4160 C.3   109  LEU109      0.0297
     73  CG        26.1870    9.3480   23.0870 C.3   109  LEU109      0.0022
     74  CD1       26.0050    8.8140   24.5040 C.3   109  LEU109      0.0001
     75  CD2       27.1360    8.4640   22.2630 C.3   109  LEU109      0.0001
     76  N         19.9700    5.2380   19.1830 N.3   112  ASP112     -0.1225
     77  CA        20.4610    3.8840   19.1100 C.3   112  ASP112      0.1805
     78  C         21.5470    3.6590   20.1780 C.2   112  ASP112      0.2597
     79  O         21.5090    2.6800   20.9080 O.2   112  ASP112     -0.2718
     80  CB        21.0290    3.6210   17.7150 C.3   112  ASP112      0.1424
     81  CG        21.4400    2.1920   17.5330 C.2   112  ASP112      0.3668
     82  OD1       20.7190    1.3110   18.0540 O.co2 112  ASP112     -0.2456
     83  OD2       22.4660    1.9350   16.8630 O.co2 112  ASP112     -0.2456
     84  N         22.5160    4.5620   20.2520 N.am  113  HIS113     -0.1975
     85  CA        23.5790    4.4650   21.2400 C.3   113  HIS113      0.1656
     86  C         23.0080    4.4240   22.6640 C.2   113  HIS113      0.2291
     87  O         23.3670    3.5770   23.4570 O.2   113  HIS113     -0.2864
     88  CB        24.5220    5.6540   21.1060 C.3   113  HIS113      0.0771
     89  CG        25.4500    5.5560   19.9380 C.ar  113  HIS113      0.0820
     90  ND1       25.6820    6.6130   19.0810 N.ar  113  HIS113     -0.2267
     91  CD2       26.2210    4.5340   19.4970 C.ar  113  HIS113      0.1154
     92  CE1       26.5550    6.2410   18.1620 C.ar  113  HIS113      0.1986
     93  NE2       26.8980    4.9850   18.3940 N.ar  113  HIS113     -0.2212
     94  N         21.4810    1.1170   23.4540 N.3   116  TYR116     -0.1227
     95  CA        22.5270    0.1410   23.6550 C.3   116  TYR116      0.1736
     96  C         23.2860    0.3270   24.9860 C.2   116  TYR116      0.2595
     97  O         23.6900   -0.6560   25.5940 O.2   116  TYR116     -0.2718
     98  CB        23.5120    0.1840   22.4790 C.3   116  TYR116      0.0548
     99  CG        24.4450   -1.0170   22.4040 C.ar  116  TYR116     -0.0200
    100  CD1       23.9330   -2.3090   22.3210 C.ar  116  TYR116     -0.0009
    101  CD2       25.8280   -0.8570   22.3180 C.ar  116  TYR116     -0.0009
    102  CE1       24.7740   -3.4220   22.1400 C.ar  116  TYR116      0.0417
    103  CE2       26.6870   -1.9650   22.1310 C.ar  116  TYR116      0.0417
    104  CZ        26.1470   -3.2440   22.0380 C.ar  116  TYR116      0.1957
    105  OH        26.9470   -4.3470   21.7960 O.3   116  TYR116     -0.2866
    106  N         23.4990    1.5680   25.4170 N.am  117  PHE117     -0.1976
    107  CA        24.2260    1.8020   26.6600 C.3   117  PHE117      0.1639
    108  C         23.3950    1.4680   27.9070 C.2   117  PHE117      0.2290
    109  O         23.8640    0.7560   28.7930 O.2   117  PHE117     -0.2864
    110  CB        24.7410    3.2570   26.7210 C.3   117  PHE117      0.0560
    111  CG        25.9760    3.5110   25.8620 C.ar  117  PHE117     -0.0200
    112  CD1       26.9110    2.5000   25.6370 C.ar  117  PHE117     -0.0042
    113  CD2       26.2240    4.7690   25.3210 C.ar  117  PHE117     -0.0042
    114  CE1       28.0680    2.7400   24.8910 C.ar  117  PHE117     -0.0003
    115  CE2       27.3740    5.0140   24.5830 C.ar  117  PHE117     -0.0003
    116  CZ        28.2950    3.9990   24.3690 C.ar  117  PHE117     -0.0000
    117  N         20.8080   -0.3980   27.9290 N.3   119  TYR119     -0.1227
    118  CA        20.5090   -1.8210   27.8640 C.3   119  TYR119      0.1736
    119  C         21.6200   -2.6190   28.5920 C.2   119  TYR119      0.2595
    120  O         21.3370   -3.4470   29.4640 O.2   119  TYR119     -0.2718
    121  CB        20.4290   -2.3060   26.4170 C.3   119  TYR119      0.0548
    122  CG        20.2920   -3.8040   26.3210 C.ar  119  TYR119     -0.0200
    123  CD1       19.0770   -4.4250   26.5910 C.ar  119  TYR119     -0.0009
    124  CD2       21.3980   -4.6090   26.0180 C.ar  119  TYR119     -0.0009
    125  CE1       18.9580   -5.8140   26.5740 C.ar  119  TYR119      0.0417
    126  CE2       21.2890   -6.0010   25.9960 C.ar  119  TYR119      0.0417
    127  CZ        20.0710   -6.5920   26.2800 C.ar  119  TYR119      0.1957
    128  OH        19.9720   -7.9560   26.3260 O.3   119  TYR119     -0.2866
    129  N         22.8750   -2.3650   28.2240 N.am  120  GLN120     -0.1979
    130  CA        24.0060   -3.0560   28.8400 C.3   120  GLN120      0.1601
    131  C         24.0920   -2.7960   30.3540 C.2   120  GLN120      0.2287
    132  O         24.3830   -3.7080   31.1250 O.2   120  GLN120     -0.2864
    133  CB        25.3200   -2.6540   28.1490 C.3   120  GLN120      0.0394
    134  CG        25.4970   -3.3040   26.7750 C.3   120  GLN120      0.0908
    135  CD        26.7330   -2.8300   26.0310 C.2   120  GLN120      0.2608
    136  OE1       26.7270   -1.7740   25.4000 O.2   120  GLN120     -0.2717
    137  NE2       27.7990   -3.6060   26.1090 N.am  120  GLN120     -0.0878
    138  N         21.5550   -4.8240   31.9690 N.3   123  ARG123     -0.1245
    139  CA        21.9050   -6.2190   31.8270 C.3   123  ARG123      0.1563
    140  C         22.8780   -6.5960   32.9580 C.2   123  ARG123      0.2260
    141  O         22.7590   -7.6680   33.5160 O.2   123  ARG123     -0.2867
    142  CB        22.5170   -6.4750   30.4490 C.3   123  ARG123      0.0307
    143  CG        22.7460   -7.9460   30.0900 C.3   123  ARG123      0.0489
    144  CD        23.2110   -8.1100   28.6260 C.3   123  ARG123      0.2205
    145  NE        23.3960   -9.5140   28.2620 N.pl3 123  ARG123     -0.0865
    146  CZ        24.5300  -10.1980   28.4230 C.cat 123  ARG123      0.5346
    147  NH1       25.6100   -9.6140   28.9360 N.pl3 123  ARG123      0.1354
    148  NH2       24.5790  -11.4810   28.1040 N.pl3 123  ARG123      0.1354
    149  N         33.5740    2.0670   28.9870 N.3   145  ILE145     -0.1231
    150  CA        33.1580    1.9670   27.5760 C.3   145  ILE145      0.1692
    151  C         34.2920    1.7840   26.5630 C.2   145  ILE145      0.2592
    152  O         35.3790    2.3230   26.7450 O.2   145  ILE145     -0.2718
    153  CB        32.4260    3.2800   27.1500 C.3   145  ILE145      0.0266
    154  CG1       31.3740    3.6630   28.1860 C.3   145  ILE145      0.0019
    155  CG2       31.8020    3.1300   25.7490 C.3   145  ILE145      0.0020
    156  CD1       30.2200    2.7260   28.2690 C.3   145  ILE145      0.0001
    157  N         34.0280    1.0370   25.4940 N.am  146  ASN146     -0.1960
    158  CA        35.0150    0.8810   24.4140 C.3   146  ASN146      0.1819
    159  C         34.4540    1.4870   23.1430 C.2   146  ASN146      0.2622
    160  O         33.2580    1.7890   23.0470 O.2   146  ASN146     -0.2715
    161  CB        35.3840   -0.5790   24.1380 C.3   146  ASN146      0.1195
    162  CG        36.5220   -1.0650   25.0250 C.2   146  ASN146      0.2630
    163  OD1       37.2760   -0.2630   25.5760 O.2   146  ASN146     -0.2716
    164  ND2       36.6530   -2.3770   25.1600 N.am  146  ASN146     -0.0877
    165  N         35.3270    1.6480   22.1630 N.am  147  SER147     -0.1936
    166  CA        34.9560    2.2390   20.8860 C.3   147  SER147      0.2055
    167  C         33.7800    1.5340   20.2110 C.2   147  SER147      0.2643
    168  O         32.8690    2.1740   19.6770 O.2   147  SER147     -0.2714
    169  CB        36.1590    2.2250   19.9620 C.3   147  SER147      0.2130
    170  OG        36.0460    3.2960   19.0580 O.3   147  SER147     -0.2179
    171  N         33.7950    0.2110   20.2440 N.am  148  ASN148     -0.1957
    172  CA        32.7310   -0.5460   19.6340 C.3   148  ASN148      0.1819
    173  C         31.4570   -0.4720   20.4670 C.2   148  ASN148      0.2621
    174  O         30.5270   -1.2300   20.2240 O.2   148  ASN148     -0.2715
    175  CB        33.1630   -1.9970   19.4640 C.3   148  ASN148      0.1195
    176  CG        33.1660   -2.7650   20.7800 C.2   148  ASN148      0.2630
    177  OD1       32.9620   -2.1970   21.8650 O.2   148  ASN148     -0.2716
    178  ND2       33.4000   -4.0730   20.6870 N.am  148  ASN148     -0.0877
    179  N         31.4270    0.4250   21.4550 N.am  149  CYS149     -0.1954
    180  CA        30.2570    0.6090   22.3090 C.3   149  CYS149      0.1843
    181  C         29.9520   -0.4510   23.4000 C.2   149  CYS149      0.2625
    182  O         28.8690   -0.4360   24.0080 O.2   149  CYS149     -0.2714
    183  CB        29.0250    0.8270   21.4310 C.3   149  CYS149      0.0997
    184  SG        29.0430    2.4390   20.5660 S.3   149  CYS149     -0.0797
    185  N         30.8840   -1.3640   23.6560 N.am  150  ASP150     -0.1971
    186  CA        30.6920   -2.3650   24.7170 C.3   150  ASP150      0.1709
    187  C         30.7440   -1.6220   26.0670 C.2   150  ASP150      0.2293
    188  O         31.5860   -0.7520   26.2580 O.2   150  ASP150     -0.2864
    189  CB        31.8120   -3.4180   24.6810 C.3   150  ASP150      0.1436
    190  CG        31.5390   -4.5480   23.6780 C.2   150  ASP150      0.3671
    191  OD1       30.4110   -4.6350   23.1420 O.co2 150  ASP150     -0.2456
    192  OD2       32.4540   -5.3620   23.4410 O.co2 150  ASP150     -0.2456
    193  N         15.1420   -3.6460   20.4440 N.3   295  THR295     -0.1203
    194  CA        16.1930   -3.8560   19.4510 C.3   295  THR295      0.1994
    195  C         17.3340   -4.7180   20.0050 C.2   295  THR295      0.2617
    196  O         17.9760   -5.4680   19.2650 O.2   295  THR295     -0.2717
    197  CB        16.8060   -2.5210   19.0000 C.3   295  THR295      0.1784
    198  OG1       15.8400   -1.7800   18.2480 O.3   295  THR295     -0.2211
    199  CG2       18.0450   -2.7600   18.1650 C.3   295  THR295      0.0376
    200  N         17.6050   -4.5950   21.3000 N.am  296  TYR296     -0.1975
    201  CA        18.6840   -5.3680   21.9100 C.3   296  TYR296      0.1639
    202  C         18.2190   -6.4400   22.9140 C.2   296  TYR296      0.2290
    203  O         19.0150   -7.2510   23.3750 O.2   296  TYR296     -0.2864
    204  CB        19.6970   -4.3980   22.5550 C.3   296  TYR296      0.0560
    205  CG        20.2710   -3.3990   21.5600 C.ar  296  TYR296     -0.0198
    206  CD1       21.2030   -3.7980   20.6120 C.ar  296  TYR296     -0.0009
    207  CD2       19.8110   -2.0830   21.5070 C.ar  296  TYR296     -0.0009
    208  CE1       21.6520   -2.9280   19.6420 C.ar  296  TYR296      0.0417
    209  CE2       20.2460   -1.2050   20.5390 C.ar  296  TYR296      0.0417
    210  CZ        21.1660   -1.6410   19.6070 C.ar  296  TYR296      0.1957
    211  OH        21.5880   -0.8190   18.5940 O.3   296  TYR296     -0.2866
    212  N         16.9110   -9.8090   24.4920 N.3   298  ASP298     -0.1239
    213  CA        16.9790  -11.2300   24.1380 C.3   298  ASP298      0.1674
    214  C         16.8110  -12.0140   25.4480 C.2   298  ASP298      0.2266
    215  O         17.7670  -12.2040   26.2190 O.2   298  ASP298     -0.2867
    216  CB        18.3170  -11.5640   23.4750 C.3   298  ASP298      0.1410
    217  CG        18.4470  -13.0360   23.1170 C.2   298  ASP298      0.3668
    218  OD1       17.5950  -13.8510   23.5620 O.co2 298  ASP298     -0.2456
    219  OD2       19.4210  -13.3740   22.3940 O.co2 298  ASP298     -0.2456
    220  N         19.4750  -14.5050   26.5870 N.3   301  ASP301     -0.1239
    221  CA        20.8400  -14.0600   26.7820 C.3   301  ASP301      0.1674
    222  C         20.9090  -12.9380   27.8040 C.2   301  ASP301      0.2266
    223  O         21.5790  -11.9270   27.5970 O.2   301  ASP301     -0.2867
    224  CB        21.4560  -13.5980   25.4770 C.3   301  ASP301      0.1410
    225  CG        22.9540  -13.4360   25.5930 C.2   301  ASP301      0.3668
    226  OD1       23.5270  -14.0120   26.5410 O.co2 301  ASP301     -0.2456
    227  OD2       23.5660  -12.7550   24.7490 O.co2 301  ASP301     -0.2456
@<TRIPOS>BOND
     1    83    81   ar
     2    81    80    1
     3    81    82   ar
     4    80    77    1
     5    92    93   ar
     6    92    90   ar
     7   199   197    1
     8   198   197    1
     9    93    91   ar
    10   211   210    1
    11   197   194    1
    12   170   169    1
    13    90    89   ar
    14    77    76    1
    15    77    78    1
    16   196   195    2
    17    63    62    2
    18   194   195    1
    19   194   193    1
    20   175   172    1
    21   175   176    1
    22    64    65    1
    23    64    61    1
    24    91    89   ar
    25   210   208   ar
    26   210   209   ar
    27   172   171    1
    28   172   173    1
    29   208   206   ar
    30   168   167    2
    31    67    66    1
    32    65    66    1
    33    89    88    1
    34   169   166    1
    35   195   200   am
    36    78    84   am
    37    78    79    2
    38   167   171   am
    39   167   166    1
    40   174   173    2
    41    84    85    1
    42    70    71    2
    43    70    69    1
    44    62    61    1
    45    62    68   am
    46   173   179   am
    47   209   207   ar
    48   184   183    1
    49   206   205   ar
    50    58    57    2
    51   178   176   am
    52    61    60    1
    53   176   177    2
    54   166   165    1
    55    60    53   am
    56    69    68    1
    57    69    72    1
    58    88    85    1
    59    57    56    1
    60    57    59   am
    61    85    86    1
    62    56    55    1
    63   200   201    1
    64   183   180    1
    65   179   180    1
    66   207   205   ar
    67   205   204    1
    68   105   104    1
    69    17    16    2
    70   201   204    1
    71   201   202    1
    72   104   103   ar
    73   104   102   ar
    74   103   101   ar
    75    55    52    1
    76   102   100   ar
    77   165   159   am
    78    18    16   am
    79    75    73    1
    80    53    52    1
    81    53    54    2
    82   180   181    1
    83   101    99   ar
    84   100    99   ar
    85   219   217   ar
    86    99    98    1
    87    72    73    1
    88    52    51    1
    89    47    46    2
    90    98    95    1
    91    16    15    1
    92    86    87    2
    93   202   203    2
    94   160   159    2
    95    73    74    1
    96   217   216    1
    97   217   218   ar
    98   191   190   ar
    99   159   158    1
   100   181   185   am
   101   181   182    2
   102   192   190   ar
   103    94    95    1
   104   216   213    1
   105    46    51   am
   106    46    45    1
   107    95    96    1
   108   185   186    1
   109   190   189    1
   110    15    14    1
   111   213   212    1
   112   213   214    1
   113   161   158    1
   114   161   162    1
   115   116   115   ar
   116   116   114   ar
   117   158   157    1
   118   115   113   ar
   119   189   186    1
   120   186   187    1
   121   227   225   ar
   122    45    48    1
   123    45    44    1
   124    49    48    1
   125    48    50    1
   126   114   112   ar
   127    14    11    1
   128    96   106   am
   129    96    97    2
   130   162   164   am
   131   162   163    2
   132    42    41    1
   133   113   111   ar
   134   136   135    2
   135   106   107    1
   136   214   215    2
   137   224   225    1
   138   224   221    1
   139   157   151   am
   140   225   226   ar
   141   112   111   ar
   142    40    39    2
   143   155   153    1
   144   111   110    1
   145     9     7   ar
   146   126   124   ar
   147   126   127   ar
   148   124   122   ar
   149   135   137   am
   150   135   134    1
   151   187   188    2
   152     8     7   ar
   153    43    41    1
   154   127   128    1
   155   127   125   ar
   156   122   121    1
   157   122   123   ar
   158    11    10    1
   159    11    12    1
   160     7     6    1
   161   121   118    1
   162    41    38    1
   163    25    23    1
   164   151   152    2
   165   151   150    1
   166   125   123   ar
   167   220   221    1
   168    39    38    1
   169   107   110    1
   170   107   108    1
   171    38    37    1
   172   134   133    1
   173   221   222    1
   174   153   150    1
   175   153   154    1
   176    12    13    2
   177    12    19   am
   178     6     5    1
   179    29    28    2
   180    23    24    1
   181    23    20    1
   182   150   149    1
   183   223   222    2
   184    19    20    1
   185   118   117    1
   186   118   119    1
   187    36    34    1
   188   108   109    2
   189    37    28   am
   190   148   146    1
   191   133   130    1
   192   154   156    1
   193   129   119   am
   194   129   130    1
   195    28    27    1
   196     5     2    1
   197   145   146    2
   198   145   144    1
   199   146   147    1
   200    33    34    2
   201    33    32    1
   202    20    21    1
   203   119   120    2
   204    34    35    1
   205   144   143    1
   206    31    32    1
   207    31    30    1
   208   130   131    1
   209    21    22    2
   210     4     3    2
   211    30    27    1
   212     2     3    1
   213     2     1    1
   214    27    26    1
   215   143   142    1
   216   131   132    2
   217   142   139    1
   218   139   138    1
   219   139   140    1
   220   140   141    2
