@<TRIPOS>MOLECULE
tmp/2babA01.pdb
 244 238 0 0 0
SMALL
GASTEIGER

@<TRIPOS>ATOM
      1  N          7.0550  -31.1200   31.3000 N.3    58  GLY58      -0.1210
      2  CA         6.7430  -29.8340   30.6910 C.3    58  GLY58       0.1956
      3  C          6.6570  -28.7720   31.7700 C.2    58  GLY58       0.2612
      4  O          7.5750  -28.6320   32.5740 O.2    58  GLY58      -0.2717
      5  N          5.5420  -28.0530   31.8030 N.am   59  ALA59      -0.1965
      6  CA         5.3180  -26.9770   32.7530 C.3    59  ALA59       0.1728
      7  C          5.4590  -27.4020   34.2190 C.2    59  ALA59       0.2616
      8  O          5.1380  -28.5380   34.5900 O.2    59  ALA59      -0.2715
      9  CB         3.9480  -26.3350   32.5150 C.3    59  ALA59       0.0334
     10  N          5.9530  -26.4590   35.0240 N.am   60  ILE60      -0.1963
     11  CA         6.2950  -26.6620   36.4360 C.3    60  ILE60       0.1727
     12  C          5.6300  -25.6210   37.3490 C.2    60  ILE60       0.2616
     13  O          5.1580  -25.9580   38.4610 O.2    60  ILE60      -0.2715
     14  CB         7.8260  -26.5100   36.6240 C.3    60  ILE60       0.0290
     15  CG1        8.5810  -27.5510   35.7880 C.3    60  ILE60       0.0022
     16  CG2        8.2250  -26.5670   38.1040 C.3    60  ILE60       0.0023
     17  CD1        9.9830  -27.0960   35.3830 C.3    60  ILE60       0.0001
     18  N          5.5970  -24.3610   36.9000 N.am   61  MET61      -0.1963
     19  CA         5.4130  -23.2570   37.8210 C.3    61  MET61       0.1736
     20  C          4.5030  -22.1190   37.3440 C.2    61  MET61       0.2617
     21  O          4.1620  -21.9940   36.1630 O.2    61  MET61      -0.2715
     22  CB         6.7840  -22.7080   38.2580 C.3    61  MET61       0.0427
     23  CG         7.4440  -21.7800   37.2600 C.3    61  MET61       0.0599
     24  SD         9.1080  -21.3230   37.7330 S.3    61  MET61      -0.1393
     25  CE         9.9950  -22.8460   37.4030 C.3    61  MET61       0.0692
     26  N          4.1090  -21.3110   38.3130 N.am   62  GLY62      -0.1940
     27  CA         3.3240  -20.0970   38.0750 C.3    62  GLY62       0.2014
     28  C          3.7870  -18.9920   39.0050 C.2    62  GLY62       0.2638
     29  O          4.6920  -19.1980   39.8150 O.2    62  GLY62      -0.2714
     30  N          3.1730  -17.8210   38.8810 N.am   63  VAL63      -0.1977
     31  CA         3.4110  -16.7000   39.7970 C.3    63  VAL63       0.1596
     32  C          2.0780  -16.2120   40.3260 C.2    63  VAL63       0.2287
     33  O          1.0410  -16.5130   39.7410 O.2    63  VAL63      -0.2864
     34  CB         4.1780  -15.5100   39.1190 C.3    63  VAL63       0.0276
     35  CG1        5.6520  -15.8690   38.8500 C.3    63  VAL63       0.0022
     36  CG2        3.4750  -15.0290   37.8650 C.3    63  VAL63       0.0022
     37  N         -0.8530  -15.0540   38.1550 N.3    66  TYR66      -0.1241
     38  CA        -1.5450  -16.0220   37.2830 C.3    66  TYR66       0.1605
     39  C         -3.0500  -16.0730   37.6310 C.2    66  TYR66       0.2264
     40  O         -3.5610  -17.0970   38.0930 O.2    66  TYR66      -0.2867
     41  CB        -0.9100  -17.4260   37.4330 C.3    66  TYR66       0.0534
     42  CG         0.2130  -17.7540   36.4680 C.ar   66  TYR66      -0.0201
     43  CD1        0.9980  -16.7580   35.8870 C.ar   66  TYR66      -0.0009
     44  CD2        0.5090  -19.0850   36.1560 C.ar   66  TYR66      -0.0009
     45  CE1        2.0230  -17.0750   34.9900 C.ar   66  TYR66       0.0417
     46  CE2        1.5370  -19.4100   35.2520 C.ar   66  TYR66       0.0417
     47  CZ         2.2980  -18.4020   34.6850 C.ar   66  TYR66       0.1957
     48  OH         3.3060  -18.7240   33.7710 O.3    66  TYR66      -0.2866
     49  N         10.6510  -23.9490   45.2330 N.3    85  LEU85      -0.1231
     50  CA        11.7430  -23.8150   44.2810 C.3    85  LEU85       0.1693
     51  C         12.8950  -23.0310   44.9090 C.2    85  LEU85       0.2592
     52  O         12.6840  -22.0050   45.5630 O.2    85  LEU85      -0.2718
     53  CB        11.2550  -23.1080   43.0360 C.3    85  LEU85       0.0284
     54  CG        10.2710  -23.8970   42.1770 C.3    85  LEU85       0.0019
     55  CD1        9.6400  -22.9850   41.1370 C.3    85  LEU85       0.0001
     56  CD2       10.9640  -25.0790   41.5040 C.3    85  LEU85       0.0001
     57  N         14.1100  -23.5240   44.7170 N.am   86  ARG86      -0.1966
     58  CA        15.3090  -22.8360   45.1940 C.3    86  ARG86       0.1729
     59  C         16.4100  -23.0170   44.1690 C.2    86  ARG86       0.2616
     60  O         16.4890  -24.0620   43.5190 O.2    86  ARG86      -0.2715
     61  CB        15.7330  -23.3770   46.5460 C.3    86  ARG86       0.0348
     62  CG        14.7400  -23.1270   47.6810 C.3    86  ARG86       0.0492
     63  CD        15.2110  -23.8520   48.9360 C.3    86  ARG86       0.2205
     64  NE        14.3260  -23.7220   50.1020 N.pl3  86  ARG86      -0.0865
     65  CZ        14.2600  -22.6600   50.9100 C.cat  86  ARG86       0.5346
     66  NH1       14.9710  -21.5520   50.6680 N.pl3  86  ARG86       0.1354
     67  NH2       13.4520  -22.6990   51.9720 N.pl3  86  ARG86       0.1354
     68  N         17.2500  -21.9950   44.0240 N.am   87  ARG87      -0.1977
     69  CA        18.2320  -21.9420   42.9390 C.3    87  ARG87       0.1597
     70  C         19.6060  -21.4810   43.3800 C.2    87  ARG87       0.2287
     71  O         19.7450  -20.6090   44.2450 O.2    87  ARG87      -0.2864
     72  CB        17.7610  -21.0030   41.8080 C.3    87  ARG87       0.0334
     73  CG        17.7470  -19.5040   42.1670 C.3    87  ARG87       0.0492
     74  CD        17.2820  -18.6210   41.0270 C.3    87  ARG87       0.2205
     75  NE        15.8380  -18.7240   40.8480 N.pl3  87  ARG87      -0.0865
     76  CZ        14.9360  -17.7550   41.0830 C.cat  87  ARG87       0.5346
     77  NH1       13.6510  -18.0260   40.8930 N.pl3  87  ARG87       0.1354
     78  NH2       15.2830  -16.5310   41.4970 N.pl3  87  ARG87       0.1354
     79  N         14.5910  -21.0400   30.0630 N.3   167  PHE167     -0.1241
     80  CA        13.2310  -21.5660   30.0750 C.3   167  PHE167      0.1605
     81  C         12.7000  -21.8550   28.6680 C.2   167  PHE167      0.2264
     82  O         11.4960  -22.0550   28.4690 O.2   167  PHE167     -0.2867
     83  CB        12.2990  -20.5950   30.8110 C.3   167  PHE167      0.0534
     84  CG        12.4160  -20.6320   32.3300 C.ar  167  PHE167     -0.0203
     85  CD1       13.5080  -21.1970   32.9770 C.ar  167  PHE167     -0.0042
     86  CD2       11.4240  -20.0430   33.1060 C.ar  167  PHE167     -0.0042
     87  CE1       13.5740  -21.2060   34.3870 C.ar  167  PHE167     -0.0003
     88  CE2       11.4890  -20.0400   34.4990 C.ar  167  PHE167     -0.0003
     89  CZ        12.5600  -20.6270   35.1350 C.ar  167  PHE167     -0.0000
     90  N         12.6670  -20.1240   25.7910 N.3   169  TYR169     -0.1241
     91  CA        11.9830  -19.1670   24.9300 C.3   169  TYR169      0.1605
     92  C         12.8960  -18.4920   23.8930 C.2   169  TYR169      0.2264
     93  O         12.4270  -17.7190   23.0780 O.2   169  TYR169     -0.2867
     94  CB        11.2530  -18.1350   25.7690 C.3   169  TYR169      0.0534
     95  CG        10.1320  -18.6950   26.6170 C.ar  169  TYR169     -0.0201
     96  CD1        8.9980  -19.2310   26.0280 C.ar  169  TYR169     -0.0009
     97  CD2       10.2020  -18.6740   28.0090 C.ar  169  TYR169     -0.0009
     98  CE1        7.9570  -19.7300   26.7990 C.ar  169  TYR169      0.0417
     99  CE2        9.1640  -19.1600   28.7940 C.ar  169  TYR169      0.0417
    100  CZ         8.0520  -19.6820   28.1840 C.ar  169  TYR169      0.1957
    101  OH         7.0370  -20.1600   28.9380 O.3   169  TYR169     -0.2866
    102  N          5.1920  -11.8190   28.8470 N.3   183  TYR183     -0.1227
    103  CA         5.4910  -12.9220   29.7640 C.3   183  TYR183      0.1736
    104  C          6.0900  -12.3630   31.0410 C.2   183  TYR183      0.2595
    105  O          5.4420  -12.3430   32.0680 O.2   183  TYR183     -0.2718
    106  CB         6.4430  -13.9150   29.0870 C.3   183  TYR183      0.0548
    107  CG         7.2120  -14.8460   30.0170 C.ar  183  TYR183     -0.0200
    108  CD1        6.6560  -15.3240   31.2060 C.ar  183  TYR183     -0.0009
    109  CD2        8.4940  -15.2670   29.6830 C.ar  183  TYR183     -0.0009
    110  CE1        7.3650  -16.1630   32.0380 C.ar  183  TYR183      0.0417
    111  CE2        9.2090  -16.1100   30.5080 C.ar  183  TYR183      0.0417
    112  CZ         8.6470  -16.5600   31.6760 C.ar  183  TYR183      0.1957
    113  OH         9.3890  -17.3940   32.4960 O.3   183  TYR183     -0.2866
    114  N          7.3320  -11.8980   30.9590 N.am  184  LEU184     -0.1980
    115  CA         8.0040  -11.3000   32.0980 C.3   184  LEU184      0.1596
    116  C          7.7130   -9.7900   32.1920 C.2   184  LEU184      0.2287
    117  O          8.6020   -8.9690   31.9910 O.2   184  LEU184     -0.2864
    118  CB         9.5080  -11.5660   32.0190 C.3   184  LEU184      0.0297
    119  CG         9.9240  -13.0340   32.1870 C.3   184  LEU184      0.0022
    120  CD1       11.2750  -13.3620   31.4870 C.3   184  LEU184      0.0001
    121  CD2        9.9630  -13.4170   33.6700 C.3   184  LEU184      0.0001
    122  N          5.7220   -9.9190   37.1810 N.3   188  THR188     -0.1218
    123  CA         6.1160  -11.3100   36.9860 C.3   188  THR188      0.1862
    124  C          7.6270  -11.4800   37.1950 C.2   188  THR188      0.2287
    125  O          8.0420  -12.4000   37.9200 O.2   188  THR188     -0.2866
    126  CB         5.6620  -11.8490   35.6110 C.3   188  THR188      0.1770
    127  OG1        4.2280  -11.6980   35.4850 O.3   188  THR188     -0.2211
    128  CG2        6.0620  -13.3270   35.4190 C.3   188  THR188      0.0375
    129  N          9.4820  -13.8250   40.1670 N.3   192  PHE192     -0.1241
    130  CA        10.5020  -14.8010   39.8640 C.3   192  PHE192      0.1605
    131  C         11.7580  -14.4790   40.6540 C.2   192  PHE192      0.2264
    132  O         12.2840  -15.3390   41.3310 O.2   192  PHE192     -0.2867
    133  CB        10.8420  -14.8870   38.3610 C.3   192  PHE192      0.0534
    134  CG        11.9640  -15.8580   38.0680 C.ar  192  PHE192     -0.0203
    135  CD1       11.7080  -17.2110   37.9180 C.ar  192  PHE192     -0.0042
    136  CD2       13.2890  -15.4200   38.0020 C.ar  192  PHE192     -0.0042
    137  CE1       12.7370  -18.0980   37.6760 C.ar  192  PHE192     -0.0003
    138  CE2       14.3220  -16.3130   37.7830 C.ar  192  PHE192     -0.0003
    139  CZ        14.0510  -17.6450   37.6190 C.ar  192  PHE192     -0.0000
    140  N         11.6030  -15.5680   44.0470 N.3   195  GLY195     -0.1225
    141  CA        11.2340  -16.9700   44.2600 C.3   195  GLY195      0.1811
    142  C          9.8050  -17.1920   44.7380 C.2   195  GLY195      0.2280
    143  O          9.4920  -18.2350   45.3310 O.2   195  GLY195     -0.2866
    144  N          6.9460  -18.4100   43.6680 N.3   197  LEU197     -0.1245
    145  CA         6.6270  -19.2440   42.5300 C.3   197  LEU197      0.1561
    146  C          5.7530  -20.4180   42.9450 C.2   197  LEU197      0.2260
    147  O          6.1120  -21.2070   43.8200 O.2   197  LEU197     -0.2867
    148  CB         7.9130  -19.7630   41.8760 C.3   197  LEU197      0.0270
    149  CG         8.7970  -18.6930   41.2140 C.3   197  LEU197      0.0019
    150  CD1       10.2380  -19.1560   41.0360 C.3   197  LEU197      0.0001
    151  CD2        8.2070  -18.2640   39.8830 C.3   197  LEU197      0.0001
    152  N         12.9040  -27.2520   22.3200 N.3   280  TYR280     -0.1241
    153  CA        13.2800  -27.2540   23.7250 C.3   280  TYR280      0.1605
    154  C         13.3080  -28.6940   24.2450 C.2   280  TYR280      0.2264
    155  O         12.2790  -29.3610   24.2860 O.2   280  TYR280     -0.2867
    156  CB        12.2650  -26.4070   24.5000 C.3   280  TYR280      0.0534
    157  CG        12.6500  -25.9990   25.9080 C.ar  280  TYR280     -0.0201
    158  CD1       13.9820  -25.7590   26.2670 C.ar  280  TYR280     -0.0009
    159  CD2       11.6540  -25.7750   26.8700 C.ar  280  TYR280     -0.0009
    160  CE1       14.3070  -25.3490   27.5550 C.ar  280  TYR280      0.0417
    161  CE2       11.9700  -25.3710   28.1530 C.ar  280  TYR280      0.0417
    162  CZ        13.2940  -25.1540   28.4920 C.ar  280  TYR280      0.1957
    163  OH        13.6160  -24.7440   29.7560 O.3   280  TYR280     -0.2866
    164  N         18.2380  -26.4110   42.8020 N.3   294  SER294     -0.1217
    165  CA        18.2270  -26.3160   41.3360 C.3   294  SER294      0.1889
    166  C         19.4240  -25.4450   40.8920 C.2   294  SER294      0.2288
    167  O         19.9150  -24.6220   41.6580 O.2   294  SER294     -0.2866
    168  CB        16.9100  -25.7370   40.8100 C.3   294  SER294      0.2089
    169  OG        15.8130  -26.5380   41.1570 O.3   294  SER294     -0.2183
    170  N         21.1250  -22.9660   37.6740 N.3   296  TYR296     -0.1241
    171  CA        21.0430  -22.1880   36.4540 C.3   296  TYR296      0.1605
    172  C         22.4490  -21.8940   35.9530 C.2   296  TYR296      0.2264
    173  O         23.3650  -21.6730   36.7630 O.2   296  TYR296     -0.2867
    174  CB        20.3810  -20.8320   36.7190 C.3   296  TYR296      0.0534
    175  CG        18.8850  -20.8420   36.9140 C.ar  296  TYR296     -0.0201
    176  CD1       18.0470  -20.3090   35.9470 C.ar  296  TYR296     -0.0009
    177  CD2       18.3150  -21.3450   38.0860 C.ar  296  TYR296     -0.0009
    178  CE1       16.6840  -20.3110   36.1170 C.ar  296  TYR296      0.0417
    179  CE2       16.9410  -21.3410   38.2700 C.ar  296  TYR296      0.0417
    180  CZ        16.1310  -20.8200   37.2760 C.ar  296  TYR296      0.1957
    181  OH        14.7700  -20.7730   37.4240 O.3   296  TYR296     -0.2866
    182  N         19.7110  -25.0810   32.7070 N.3   311  VAL311     -0.1231
    183  CA        19.0520  -25.1420   33.9980 C.3   311  VAL311      0.1692
    184  C         18.6970  -26.6190   34.2350 C.2   311  VAL311      0.2592
    185  O         18.5310  -27.3820   33.2780 O.2   311  VAL311     -0.2718
    186  CB        17.7960  -24.2100   34.0440 C.3   311  VAL311      0.0266
    187  CG1       16.7460  -24.6660   33.0300 C.3   311  VAL311      0.0020
    188  CG2       17.2080  -24.1340   35.4630 C.3   311  VAL311      0.0020
    189  N         18.6580  -27.0270   35.5020 N.am  312  TYR312     -0.1962
    190  CA        18.1180  -28.3470   35.8700 C.3   312  TYR312      0.1771
    191  C         17.2870  -28.2040   37.1370 C.2   312  TYR312      0.2619
    192  O         17.5430  -27.3110   37.9520 O.2   312  TYR312     -0.2715
    193  CB        19.2250  -29.4110   36.0010 C.3   312  TYR312      0.0574
    194  CG        20.3250  -29.0570   36.9850 C.ar  312  TYR312     -0.0198
    195  CD1       20.1730  -29.3120   38.3430 C.ar  312  TYR312     -0.0009
    196  CD2       21.5290  -28.4720   36.5480 C.ar  312  TYR312     -0.0009
    197  CE1       21.1720  -28.9850   39.2470 C.ar  312  TYR312      0.0417
    198  CE2       22.5380  -28.1320   37.4460 C.ar  312  TYR312      0.0417
    199  CZ        22.3580  -28.3920   38.7830 C.ar  312  TYR312      0.1957
    200  OH        23.3360  -28.0620   39.6770 O.3   312  TYR312     -0.2866
    201  N         16.3120  -29.0970   37.2930 N.am  313  TYR313     -0.1974
    202  CA        15.2230  -28.9350   38.2620 C.3   313  TYR313      0.1639
    203  C         15.3160  -29.9690   39.3710 C.2   313  TYR313      0.2290
    204  O         15.0710  -31.1520   39.1630 O.2   313  TYR313     -0.2864
    205  CB        13.8790  -29.0210   37.5250 C.3   313  TYR313      0.0560
    206  CG        12.5990  -28.9590   38.3600 C.ar  313  TYR313     -0.0198
    207  CD1       12.5660  -28.3460   39.6220 C.ar  313  TYR313     -0.0009
    208  CD2       11.4100  -29.4960   37.8680 C.ar  313  TYR313     -0.0009
    209  CE1       11.3870  -28.2940   40.3730 C.ar  313  TYR313      0.0417
    210  CE2       10.2140  -29.4460   38.6180 C.ar  313  TYR313      0.0417
    211  CZ        10.2200  -28.8610   39.8740 C.ar  313  TYR313      0.1957
    212  OH         9.0770  -28.7960   40.6300 O.3   313  TYR313     -0.2866
    213  N         17.3630  -29.0720   30.9960 N.3   327  TYR327     -0.1241
    214  CA        16.7610  -28.2300   29.9460 C.3   327  TYR327      0.1605
    215  C         17.8200  -27.6180   29.0220 C.2   327  TYR327      0.2264
    216  O         18.8040  -27.0210   29.4900 O.2   327  TYR327     -0.2867
    217  CB        15.9130  -27.1010   30.5740 C.3   327  TYR327      0.0534
    218  CG        14.8670  -27.6530   31.4860 C.ar  327  TYR327     -0.0201
    219  CD1       13.5760  -27.8730   31.0450 C.ar  327  TYR327     -0.0009
    220  CD2       15.1870  -28.0410   32.7880 C.ar  327  TYR327     -0.0009
    221  CE1       12.6210  -28.4260   31.8930 C.ar  327  TYR327      0.0417
    222  CE2       14.2420  -28.6140   33.6200 C.ar  327  TYR327      0.0417
    223  CZ        12.9620  -28.7890   33.1800 C.ar  327  TYR327      0.1957
    224  OH        12.0330  -29.3730   34.0230 O.3   327  TYR327     -0.2866
    225  N          7.8860  -25.7690   20.9880 N.3   369  TYR369     -0.1241
    226  CA         7.8810  -24.8160   22.0860 C.3   369  TYR369      0.1605
    227  C          7.8230  -23.3910   21.5550 C.2   369  TYR369      0.2264
    228  O          8.4550  -23.0830   20.5600 O.2   369  TYR369     -0.2867
    229  CB         9.1360  -25.0480   22.9390 C.3   369  TYR369      0.0534
    230  CG         9.0810  -24.4250   24.3010 C.ar  369  TYR369     -0.0201
    231  CD1        8.2470  -24.9400   25.2900 C.ar  369  TYR369     -0.0009
    232  CD2        9.8820  -23.3330   24.6220 C.ar  369  TYR369     -0.0009
    233  CE1        8.2040  -24.3760   26.5510 C.ar  369  TYR369      0.0417
    234  CE2        9.8360  -22.7610   25.8700 C.ar  369  TYR369      0.0417
    235  CZ         9.0010  -23.2890   26.8410 C.ar  369  TYR369      0.1957
    236  OH         8.9680  -22.7170   28.0860 O.3   369  TYR369     -0.2866
    237  N          3.0820  -19.5770   27.7790 N.3   406  ASN406     -0.1240
    238  CA         2.9720  -20.0500   29.1650 C.3   406  ASN406      0.1653
    239  C          1.5100  -20.3220   29.4190 C.2   406  ASN406      0.2266
    240  O          0.6590  -19.8330   28.6540 O.2   406  ASN406     -0.2867
    241  CB         3.6800  -19.1380   30.1960 C.3   406  ASN406      0.1155
    242  CG         2.9000  -17.8820   30.6000 C.2   406  ASN406      0.2627
    243  OD1        1.7000  -17.8980   30.8690 O.2   406  ASN406     -0.2716
    244  ND2        3.6410  -16.7990   30.7620 N.am  406  ASN406     -0.0877
@<TRIPOS>BOND
     1   228   227    2
     2   225   226    1
     3   227   226    1
     4   226   229    1
     5   152   153    1
     6   229   230    1
     7    93    92    2
     8   153   154    1
     9   153   156    1
    10    92    91    1
    11   154   155    2
    12   230   232   ar
    13   230   231   ar
    14   156   157    1
    15   232   234   ar
    16    91    94    1
    17    91    90    1
    18   231   233   ar
    19    94    95    1
    20   234   235   ar
    21   157   158   ar
    22   157   159   ar
    23    96    95   ar
    24    96    98   ar
    25   158   160   ar
    26   233   235   ar
    27    95    97   ar
    28    98   100   ar
    29   235   236    1
    30   159   161   ar
    31   160   162   ar
    32   237   238    1
    33    97    99   ar
    34   161   162   ar
    35   100    99   ar
    36   100   101    1
    37    82    81    2
    38   162   163    1
    39   240   239    2
    40    81    80    1
    41   102   103    1
    42   215   216    2
    43   215   214    1
    44   106   103    1
    45   106   107    1
    46   238   239    1
    47   238   241    1
    48   109   107   ar
    49   109   111   ar
    50   103   104    1
    51   214   217    1
    52   214   213    1
    53   107   108   ar
    54    79    80    1
    55    80    83    1
    56   241   242    1
    57   111   112   ar
    58   217   218    1
    59   242   244   am
    60   242   243    2
    61     2     1    1
    62     2     3    1
    63    83    84    1
    64   114   104   am
    65   114   115    1
    66   104   105    2
    67   219   218   ar
    68   219   221   ar
    69   108   110   ar
    70   218   220   ar
    71   120   119    1
    72   112   110   ar
    73   112   113    1
    74     3     5   am
    75     3     4    2
    76     5     6    1
    77   221   223   ar
    78   117   116    2
    79   118   115    1
    80   118   119    1
    81   115   116    1
    82   119   121    1
    83    84    85   ar
    84    84    86   ar
    85     9     6    1
    86   182   183    1
    87     6     7    1
    88   220   222   ar
    89    85    87   ar
    90   187   186    1
    91    86    88   ar
    92   223   222   ar
    93   223   224    1
    94   185   184    2
    95    48    47    1
    96   183   186    1
    97   183   184    1
    98   186   188    1
    99     7     8    2
   100     7    10   am
   101   184   189   am
   102    87    89   ar
   103    88    89   ar
   104    47    45   ar
   105    47    46   ar
   106    45    43   ar
   107    10    11    1
   108    46    44   ar
   109    17    15    1
   110   128   126    1
   111   127   126    1
   112   189   190    1
   113   126   123    1
   114    15    14    1
   115   190   193    1
   116   190   191    1
   117    43    42   ar
   118   176   178   ar
   119   176   175   ar
   120   172   171    1
   121   172   173    2
   122   193   194    1
   123   178   180   ar
   124    44    42   ar
   125    21    20    2
   126    11    14    1
   127    11    12    1
   128   171   174    1
   129   171   170    1
   130    42    41    1
   131   196   194   ar
   132   196   198   ar
   133    14    16    1
   134   174   175    1
   135    18    12   am
   136    18    19    1
   137   175   177   ar
   138   194   195   ar
   139   123   122    1
   140   123   124    1
   141   191   201   am
   142   191   192    2
   143   124   125    2
   144    23    24    1
   145    23    22    1
   146   180   181    1
   147   180   179   ar
   148    38    41    1
   149    38    39    1
   150    38    37    1
   151   201   202    1
   152    20    19    1
   153    20    26   am
   154    12    13    2
   155    25    24    1
   156   198   199   ar
   157   205   202    1
   158   205   206    1
   159   139   137   ar
   160   139   138   ar
   161    39    40    2
   162   137   135   ar
   163   138   136   ar
   164    19    22    1
   165    36    34    1
   166   208   206   ar
   167   208   210   ar
   168   135   134   ar
   169   136   134   ar
   170   134   133    1
   171    27    26    1
   172    27    28    1
   173   177   179   ar
   174   202   203    1
   175   195   197   ar
   176   206   207   ar
   177   133   130    1
   178   210   211   ar
   179   199   197   ar
   180   199   200    1
   181    35    34    1
   182    30    28   am
   183    30    31    1
   184    28    29    2
   185    34    31    1
   186   204   203    2
   187   207   209   ar
   188    33    32    2
   189    31    32    1
   190   130   129    1
   191   130   131    1
   192   211   209   ar
   193   211   212    1
   194   151   149    1
   195   131   132    2
   196   168   169    1
   197   168   165    1
   198    75    74    1
   199    75    76    2
   200   166   165    1
   201   166   167    2
   202    77    76    1
   203    74    73    1
   204   150   149    1
   205    76    78    1
   206    55    54    1
   207   149   148    1
   208   165   164    1
   209    56    54    1
   210    72    73    1
   211    72    69    1
   212   148   145    1
   213    54    53    1
   214   145   146    1
   215   145   144    1
   216    69    70    1
   217    69    68    1
   218   146   147    2
   219    53    50    1
   220    70    71    2
   221    60    59    2
   222    68    59   am
   223   140   141    1
   224    59    58    1
   225   141   142    1
   226    50    51    1
   227    50    49    1
   228    57    51   am
   229    57    58    1
   230   142   143    2
   231    51    52    2
   232    58    61    1
   233    61    62    1
   234    62    63    1
   235    63    64    1
   236    64    65    2
   237    66    65    1
   238    65    67    1
