@<TRIPOS>MOLECULE
tmp/2bagA01.pdb
 148 149 0 0 0
SMALL
GASTEIGER

@<TRIPOS>ATOM
      1  N         -0.0610   73.8340   64.9560 N.3    81  TRP81      -0.1241
      2  CA        -0.1890   72.5840   64.2220 C.3    81  TRP81       0.1605
      3  C         -1.6140   72.0310   64.2250 C.2    81  TRP81       0.2264
      4  O         -1.9560   71.2060   63.3740 O.2    81  TRP81      -0.2867
      5  CB         0.7840   71.5380   64.7930 C.3    81  TRP81       0.0550
      6  CG         2.2220   71.9790   64.6980 C.ar   81  TRP81       0.0003
      7  CD1        3.0290   72.4090   65.7230 C.ar   81  TRP81       0.0946
      8  CD2        3.0060   72.0880   63.5020 C.ar   81  TRP81       0.0152
      9  NE1        4.2690   72.7790   65.2300 N.ar   81  TRP81      -0.2442
     10  CE2        4.2780   72.5910   63.8730 C.ar   81  TRP81       0.0810
     11  CE3        2.7590   71.8110   62.1520 C.ar   81  TRP81       0.0012
     12  CZ2        5.2940   72.8210   62.9400 C.ar   81  TRP81       0.0191
     13  CZ3        3.7760   72.0440   61.2200 C.ar   81  TRP81       0.0001
     14  CH2        5.0250   72.5440   61.6220 C.ar   81  TRP81       0.0015
     15  N          2.0340   66.9860   56.7210 N.3   114  GLY114     -0.1210
     16  CA         2.4400   65.8910   57.5790 C.3   114  GLY114      0.1956
     17  C          1.5200   65.8670   58.7860 C.2   114  GLY114      0.2612
     18  O          0.5170   66.5880   58.8320 O.2   114  GLY114     -0.2717
     19  N          1.8630   65.0420   59.7670 N.am  115  GLY115     -0.1942
     20  CA         1.0500   64.9260   60.9610 C.3   115  GLY115      0.2014
     21  C          0.9230   63.4680   61.3820 C.2   115  GLY115      0.2639
     22  O         -0.1010   63.0800   61.9570 O.2   115  GLY115     -0.2714
     23  N          1.9550   62.6670   61.0900 N.am  116  GLY116     -0.1954
     24  CA         1.9590   61.2560   61.4580 C.3   116  GLY116      0.1869
     25  C          0.7780   60.4380   60.9520 C.2   116  GLY116      0.2309
     26  O          0.4680   59.4000   61.5030 O.2   116  GLY116     -0.2863
     27  N         -2.1720   60.8320   61.4130 N.3   118  TYR118     -0.1227
     28  CA        -3.3090   60.9080   62.3290 C.3   118  TYR118      0.1736
     29  C         -3.8200   62.3460   62.5060 C.2   118  TYR118      0.2596
     30  O         -4.8250   62.5820   63.1860 O.2   118  TYR118     -0.2718
     31  CB        -2.9310   60.3470   63.7010 C.3   118  TYR118      0.0548
     32  CG        -2.0080   61.2370   64.5120 C.ar  118  TYR118     -0.0200
     33  CD1       -2.5070   62.2930   65.2700 C.ar  118  TYR118     -0.0009
     34  CD2       -0.6300   61.0110   64.5220 C.ar  118  TYR118     -0.0009
     35  CE1       -1.6540   63.1070   66.0290 C.ar  118  TYR118      0.0417
     36  CE2        0.2350   61.8080   65.2630 C.ar  118  TYR118      0.0417
     37  CZ        -0.2800   62.8560   66.0150 C.ar  118  TYR118      0.1957
     38  OH         0.5780   63.6620   66.7340 O.3   118  TYR118     -0.2866
     39  N         -3.1250   63.3070   61.9070 N.am  119  SER119     -0.1952
     40  CA        -3.5110   64.7020   62.0350 C.3   119  SER119      0.1924
     41  C         -2.9420   65.4770   60.8740 C.2   119  SER119      0.2314
     42  O         -2.2450   64.9080   60.0200 O.2   119  SER119     -0.2863
     43  CB        -2.9440   65.2790   63.3270 C.3   119  SER119      0.2116
     44  OG        -1.5250   65.2830   63.2910 O.3   119  SER119     -0.2180
     45  N          1.5190   76.9230   56.3020 N.3   127  TYR127     -0.1241
     46  CA         1.3360   76.3700   54.9660 C.3   127  TYR127      0.1605
     47  C          0.7620   77.3800   53.9830 C.2   127  TYR127      0.2264
     48  O          0.4240   77.0150   52.8550 O.2   127  TYR127     -0.2867
     49  CB         0.4120   75.1550   54.9980 C.3   127  TYR127      0.0534
     50  CG         0.8870   74.0050   55.8520 C.ar  127  TYR127     -0.0201
     51  CD1        2.2460   73.8230   56.1520 C.ar  127  TYR127     -0.0009
     52  CD2       -0.0320   73.0850   56.3600 C.ar  127  TYR127     -0.0009
     53  CE1        2.6700   72.7500   56.9480 C.ar  127  TYR127      0.0417
     54  CE2        0.3670   72.0270   57.1350 C.ar  127  TYR127      0.0417
     55  CZ         1.7120   71.8580   57.4370 C.ar  127  TYR127      0.1957
     56  OH         2.0510   70.8120   58.2570 O.3   127  TYR127     -0.2866
     57  N          6.1370   67.1730   54.1980 N.3   196  GLU196     -0.1231
     58  CA         7.0150   66.9760   55.3390 C.3   196  GLU196      0.1699
     59  C          6.5370   65.8520   56.2410 C.2   196  GLU196      0.2593
     60  O          5.3460   65.7060   56.4920 O.2   196  GLU196     -0.2718
     61  CB         7.1350   68.2840   56.1420 C.3   196  GLU196      0.0402
     62  CG         8.1100   68.2380   57.3180 C.3   196  GLU196      0.1161
     63  CD         7.4310   67.8750   58.6310 C.2   196  GLU196      0.3649
     64  OE1        6.1820   67.8680   58.6670 O.co2 196  GLU196     -0.2457
     65  OE2        8.1430   67.6010   59.6320 O.co2 196  GLU196     -0.2457
     66  N          7.4800   65.0520   56.7160 N.am  197  SER197     -0.1938
     67  CA         7.1620   63.9640   57.6370 C.3   197  SER197      0.2055
     68  C          6.1860   62.9710   56.9540 C.2   197  SER197      0.2642
     69  O          6.5100   62.4500   55.9000 O.2   197  SER197     -0.2714
     70  CB         6.6000   64.6110   58.9170 C.3   197  SER197      0.2130
     71  OG         6.3280   63.6740   59.9380 O.3   197  SER197     -0.2179
     72  N          5.0160   62.7000   57.5270 N.am  198  ALA198     -0.1977
     73  CA         4.0750   61.7980   56.8640 C.3   198  ALA198      0.1597
     74  C          3.8390   62.3000   55.4420 C.2   198  ALA198      0.2287
     75  O          3.5410   61.5140   54.5500 O.2   198  ALA198     -0.2864
     76  CB         2.7390   61.7380   57.6180 C.3   198  ALA198      0.0319
     77  N          7.5670   54.0160   61.1390 N.3   230  TRP230     -0.1241
     78  CA         6.2120   54.3900   61.5950 C.3   230  TRP230      0.1605
     79  C          5.2050   54.6540   60.4640 C.2   230  TRP230      0.2264
     80  O          4.0010   54.8130   60.7180 O.2   230  TRP230     -0.2867
     81  CB         6.2870   55.6710   62.4230 C.3   230  TRP230      0.0550
     82  CG         7.0950   56.7300   61.7310 C.ar  230  TRP230      0.0003
     83  CD1        8.4450   56.9540   61.8590 C.ar  230  TRP230      0.0946
     84  CD2        6.6320   57.6450   60.7280 C.ar  230  TRP230      0.0152
     85  NE1        8.8450   57.9470   60.9950 N.ar  230  TRP230     -0.2442
     86  CE2        7.7540   58.3910   60.2910 C.ar  230  TRP230      0.0810
     87  CE3        5.3830   57.9090   60.1590 C.ar  230  TRP230      0.0012
     88  CZ2        7.6590   59.3880   59.3060 C.ar  230  TRP230      0.0191
     89  CZ3        5.2910   58.9050   59.1750 C.ar  230  TRP230      0.0001
     90  CH2        6.4230   59.6290   58.7620 C.ar  230  TRP230      0.0015
     91  N          6.7680   57.8400   68.6940 N.3   285  PHE285     -0.1241
     92  CA         6.8960   57.9350   67.2380 C.3   285  PHE285      0.1605
     93  C          6.2400   56.7480   66.4860 C.2   285  PHE285      0.2264
     94  O          6.7730   56.2270   65.4940 O.2   285  PHE285     -0.2867
     95  CB         8.3750   58.0670   66.8410 C.3   285  PHE285      0.0534
     96  CG         8.6180   59.0270   65.6980 C.ar  285  PHE285     -0.0203
     97  CD1        7.8390   58.9760   64.5380 C.ar  285  PHE285     -0.0042
     98  CD2        9.6400   59.9700   65.7700 C.ar  285  PHE285     -0.0042
     99  CE1        8.0750   59.8440   63.4740 C.ar  285  PHE285     -0.0003
    100  CE2        9.8780   60.8390   64.7060 C.ar  285  PHE285     -0.0003
    101  CZ         9.0920   60.7730   63.5560 C.ar  285  PHE285     -0.0000
    102  N          2.2110   55.5660   65.2760 N.3   287  PHE287     -0.1241
    103  CA         0.8520   56.0400   65.0950 C.3   287  PHE287      0.1605
    104  C         -0.0580   54.8730   64.7180 C.2   287  PHE287      0.2264
    105  O          0.3460   53.9370   64.0280 O.2   287  PHE287     -0.2867
    106  CB         0.8780   57.1410   64.0290 C.3   287  PHE287      0.0534
    107  CG         2.0120   58.1070   64.2150 C.ar  287  PHE287     -0.0203
    108  CD1        2.0990   58.8810   65.3690 C.ar  287  PHE287     -0.0042
    109  CD2        3.0270   58.1970   63.2780 C.ar  287  PHE287     -0.0042
    110  CE1        3.1820   59.7260   65.5840 C.ar  287  PHE287     -0.0003
    111  CE2        4.1140   59.0400   63.4820 C.ar  287  PHE287     -0.0003
    112  CZ         4.1950   59.8090   64.6390 C.ar  287  PHE287     -0.0000
    113  N         10.7690   66.5100   69.5970 N.3   327  PHE327     -0.1227
    114  CA         9.3150   66.6340   69.7420 C.3   327  PHE327      0.1736
    115  C          8.6630   65.4230   70.4240 C.2   327  PHE327      0.2595
    116  O          7.8620   65.5600   71.3600 O.2   327  PHE327     -0.2718
    117  CB         8.6550   66.7970   68.3670 C.3   327  PHE327      0.0547
    118  CG         7.8160   68.0230   68.2400 C.ar  327  PHE327     -0.0202
    119  CD1        6.9290   68.3790   69.2480 C.ar  327  PHE327     -0.0042
    120  CD2        7.9540   68.8620   67.1310 C.ar  327  PHE327     -0.0042
    121  CE1        6.1960   69.5590   69.1650 C.ar  327  PHE327     -0.0003
    122  CE2        7.2300   70.0440   67.0320 C.ar  327  PHE327     -0.0003
    123  CZ         6.3480   70.3990   68.0520 C.ar  327  PHE327     -0.0000
    124  N          9.0180   64.2350   69.9410 N.am  328  PHE328     -0.1976
    125  CA         8.4490   63.0010   70.4390 C.3   328  PHE328      0.1639
    126  C          8.9250   62.6110   71.8280 C.2   328  PHE328      0.2290
    127  O          8.2180   61.9050   72.5430 O.2   328  PHE328     -0.2864
    128  CB         8.7140   61.8810   69.4190 C.3   328  PHE328      0.0560
    129  CG         8.3360   62.2660   68.0160 C.ar  328  PHE328     -0.0200
    130  CD1        9.1670   63.1100   67.2610 C.ar  328  PHE328     -0.0042
    131  CD2        7.1050   61.8910   67.4900 C.ar  328  PHE328     -0.0042
    132  CE1        8.7670   63.5810   66.0000 C.ar  328  PHE328     -0.0003
    133  CE2        6.6940   62.3570   66.2280 C.ar  328  PHE328     -0.0003
    134  CZ         7.5230   63.2010   65.4860 C.ar  328  PHE328     -0.0000
    135  N         11.7140   69.0610   64.5890 N.3   437  HIS437     -0.1226
    136  CA        10.9910   68.3870   63.5240 C.3   437  HIS437      0.1752
    137  C          9.9000   69.3480   63.0510 C.2   437  HIS437      0.2596
    138  O          9.1510   69.8540   63.8600 O.2   437  HIS437     -0.2718
    139  CB        10.3630   67.1370   64.1100 C.3   437  HIS437      0.0759
    140  CG         9.5790   66.3220   63.1390 C.ar  437  HIS437      0.0818
    141  ND1       10.1670   65.6520   62.0860 N.ar  437  HIS437     -0.2268
    142  CD2        8.2640   65.9940   63.1140 C.ar  437  HIS437      0.1154
    143  CE1        9.2470   64.9390   61.4590 C.ar  437  HIS437      0.1986
    144  NE2        8.0850   65.1270   62.0630 N.ar  437  HIS437     -0.2212
    145  N          9.8350   69.6130   61.7500 N.am  438  GLY438     -0.1957
    146  CA         8.8110   70.5010   61.2190 C.3   438  GLY438      0.1869
    147  C          9.1130   71.9920   61.1960 C.2   438  GLY438      0.2309
    148  O          8.3090   72.7830   60.7000 O.2   438  GLY438     -0.2863
@<TRIPOS>BOND
     1    48    47    2
     2    47    46    1
     3    57    58    1
     4    75    74    2
     5    46    49    1
     6    46    45    1
     7    49    50    1
     8    58    61    1
     9    58    59    1
    10    74    73    1
    11    50    51   ar
    12    50    52   ar
    13    69    68    2
    14    61    62    1
    15    51    53   ar
    16    59    60    2
    17    59    66   am
    18    52    54   ar
    19    66    67    1
    20    15    16    1
    21    73    72    1
    22    73    76    1
    23    53    55   ar
    24    68    72   am
    25    68    67    1
    26    54    55   ar
    27    62    63    1
    28    55    56    1
    29    16    17    1
    30    67    70    1
    31    63    64   ar
    32    63    65   ar
    33    90    89   ar
    34    90    88   ar
    35    17    18    2
    36    17    19   am
    37    70    71    1
    38    89    87   ar
    39    88    86   ar
    40    19    20    1
    41    42    41    2
    42    87    84   ar
    43    86    84   ar
    44    86    85   ar
    45    79    80    2
    46    79    78    1
    47   148   147    2
    48    84    82   ar
    49    41    40    1
    50    25    24    1
    51    25    26    2
    52    20    21    1
    53    85    83   ar
    54    23    21   am
    55    23    24    1
    56    77    78    1
    57   147   146    1
    58   146   145    1
    59    13    14   ar
    60    13    11   ar
    61    21    22    2
    62    27    28    1
    63   143   144   ar
    64   143   141   ar
    65    78    81    1
    66    14    12   ar
    67    82    83   ar
    68    82    81    1
    69   145   137   am
    70    39    40    1
    71    39    29   am
    72    40    43    1
    73   144   142   ar
    74   141   140   ar
    75    11     8   ar
    76    28    29    1
    77    28    31    1
    78    29    30    2
    79    12    10   ar
    80   137   136    1
    81   137   138    2
    82   142   140   ar
    83   140   139    1
    84   109   111   ar
    85   109   107   ar
    86    44    43    1
    87     4     3    2
    88    99   101   ar
    89    99    97   ar
    90   111   112   ar
    91     8    10   ar
    92     8     6   ar
    93   136   139    1
    94   136   135    1
    95   101   100   ar
    96    31    32    1
    97    10     9   ar
    98   105   104    2
    99   106   107    1
   100   106   103    1
   101   107   108   ar
   102     2     3    1
   103     2     5    1
   104     2     1    1
   105    32    34   ar
   106    32    33   ar
   107    34    36   ar
   108    97    96   ar
   109   112   110   ar
   110     6     5    1
   111     6     7   ar
   112   100    98   ar
   113   104   103    1
   114   103   102    1
   115     9     7   ar
   116    36    37   ar
   117    33    35   ar
   118   108   110   ar
   119   134   132   ar
   120   134   133   ar
   121    94    93    2
   122    96    98   ar
   123    96    95    1
   124   132   130   ar
   125    37    35   ar
   126    37    38    1
   127   133   131   ar
   128    93    92    1
   129    95    92    1
   130   122   120   ar
   131   122   123   ar
   132   120   118   ar
   133    92    91    1
   134   130   129   ar
   135   131   129   ar
   136   129   128    1
   137   123   121   ar
   138   118   117    1
   139   118   119   ar
   140   117   114    1
   141   121   119   ar
   142   128   125    1
   143   113   114    1
   144   114   115    1
   145   124   115   am
   146   124   125    1
   147   115   116    2
   148   125   126    1
   149   126   127    2
