@<TRIPOS>MOLECULE
tmp/2bagA02.pdb
 98 91 0 0 0
SMALL
GASTEIGER

@<TRIPOS>ATOM
      1  N         18.1260   58.1370   54.6810 N.3   402  MET402     -0.1230
      2  CA        19.4050   57.8640   54.0430 C.3   402  MET402      0.1702
      3  C         19.3430   56.5240   53.2990 C.2   402  MET402      0.2592
      4  O         19.9280   56.3710   52.2260 O.2   402  MET402     -0.2718
      5  CB        20.5430   57.8780   55.0670 C.3   402  MET402      0.0401
      6  CG        20.8550   59.2760   55.6000 C.3   402  MET402      0.0596
      7  SD        21.0440   60.5140   54.2750 S.3   402  MET402     -0.1393
      8  CE        22.3500   59.7390   53.2880 C.3   402  MET402      0.0692
      9  N         18.6120   55.5560   53.8350 N.am  403  HIS403     -0.1976
     10  CA        18.5000   54.2710   53.1390 C.3   403  HIS403      0.1656
     11  C         17.7000   54.4680   51.8430 C.2   403  HIS403      0.2291
     12  O         18.0410   53.9080   50.7960 O.2   403  HIS403     -0.2864
     13  CB        17.8190   53.2320   54.0300 C.3   403  HIS403      0.0771
     14  CG        17.5860   51.9140   53.3590 C.ar  403  HIS403      0.0820
     15  ND1       18.6080   51.0320   53.0720 N.ar  403  HIS403     -0.2267
     16  CD2       16.4430   51.3180   52.9380 C.ar  403  HIS403      0.1154
     17  CE1       18.1050   49.9500   52.5050 C.ar  403  HIS403      0.1986
     18  NE2       16.7950   50.0980   52.4120 N.ar  403  HIS403     -0.2212
     19  N         19.9050   56.3920   49.2030 N.3   406  ASN406     -0.1240
     20  CA        20.9290   55.5560   48.6170 C.3   406  ASN406      0.1653
     21  C         20.3160   54.5330   47.6490 C.2   406  ASN406      0.2266
     22  O         20.8870   54.2400   46.6070 O.2   406  ASN406     -0.2867
     23  CB        21.7570   54.9040   49.7280 C.3   406  ASN406      0.1155
     24  CG        22.8830   55.8340   50.2260 C.2   406  ASN406      0.2627
     25  OD1       23.8400   56.1190   49.4980 O.2   406  ASN406     -0.2716
     26  ND2       22.7590   56.3170   51.4490 N.am  406  ASN406     -0.0877
     27  N         25.9070   58.0290   44.2050 N.3   494  THR494     -0.1218
     28  CA        26.1630   56.7790   44.9150 C.3   494  THR494      0.1862
     29  C         27.5880   56.7800   45.4500 C.2   494  THR494      0.2287
     30  O         27.8520   56.3360   46.5670 O.2   494  THR494     -0.2866
     31  CB        26.0280   55.5600   43.9670 C.3   494  THR494      0.1770
     32  OG1       24.6740   55.4350   43.5210 O.3   494  THR494     -0.2211
     33  CG2       26.4490   54.2890   44.6750 C.3   494  THR494      0.0375
     34  N         28.2380   60.7550   47.4890 N.3   497  GLN497     -0.1245
     35  CA        27.1900   60.9980   48.4980 C.3   497  GLN497      0.1566
     36  C         27.2070   62.3690   49.1760 C.2   497  GLN497      0.2260
     37  O         27.0780   62.4730   50.3910 O.2   497  GLN497     -0.2867
     38  CB        27.2880   59.9080   49.5610 C.3   497  GLN497      0.0367
     39  CG        27.1270   58.5040   48.9760 C.3   497  GLN497      0.0905
     40  CD        27.5250   57.4210   49.9520 C.2   497  GLN497      0.2608
     41  OE1       27.2120   57.5010   51.1320 O.2   497  GLN497     -0.2717
     42  NE2       28.2080   56.3910   49.4570 N.am  497  GLN497     -0.0878
     43  N         28.3790   61.6830   53.1750 N.3   512  ARG512     -0.1231
     44  CA        27.8970   60.5840   53.9930 C.3   512  ARG512      0.1694
     45  C         27.1970   60.9940   55.2780 C.2   512  ARG512      0.2591
     46  O         27.6690   60.7210   56.3780 O.2   512  ARG512     -0.2718
     47  CB        29.0580   59.6480   54.2970 C.3   512  ARG512      0.0321
     48  CG        29.5620   58.9420   53.0480 C.3   512  ARG512      0.0489
     49  CD        30.7140   58.0180   53.3510 C.3   512  ARG512      0.2205
     50  NE        31.1040   57.2580   52.1750 N.pl3 512  ARG512     -0.0865
     51  CZ        31.9860   56.2640   52.1920 C.cat 512  ARG512      0.5346
     52  NH1       32.5730   55.9170   53.3350 N.pl3 512  ARG512      0.1354
     53  NH2       32.2750   55.6070   51.0730 N.pl3 512  ARG512      0.1354
     54  N         26.0500   61.6360   55.1050 N.am  513  LEU513     -0.1980
     55  CA        25.2230   62.0940   56.2030 C.3   513  LEU513      0.1596
     56  C         24.9480   60.9760   57.2050 C.2   513  LEU513      0.2287
     57  O         24.2700   59.9880   56.8920 O.2   513  LEU513     -0.2864
     58  CB        23.9080   62.6460   55.6410 C.3   513  LEU513      0.0297
     59  CG        22.7880   63.1000   56.5630 C.3   513  LEU513      0.0022
     60  CD1       23.3270   63.8180   57.7680 C.3   513  LEU513      0.0001
     61  CD2       21.8940   64.0330   55.7550 C.3   513  LEU513      0.0001
     62  N         26.5770   58.4360   58.3710 N.3   515  VAL515     -0.1245
     63  CA        26.8350   57.0400   58.0110 C.3   515  VAL515      0.1561
     64  C         27.0690   56.1120   59.1950 C.2   515  VAL515      0.2260
     65  O         26.5270   55.0150   59.2380 O.2   515  VAL515     -0.2867
     66  CB        28.0780   56.8470   57.0830 C.3   515  VAL515      0.0252
     67  CG1       27.6880   56.9810   55.6590 C.3   515  VAL515      0.0019
     68  CG2       29.1860   57.8220   57.4590 C.3   515  VAL515      0.0019
     69  N         23.7900   55.3610   60.7380 N.3   518  CYS518     -0.1221
     70  CA        22.8660   54.7010   59.8400 C.3   518  CYS518      0.1808
     71  C         23.3160   53.2950   59.4300 C.2   518  CYS518      0.2601
     72  O         22.4780   52.4310   59.0990 O.2   518  CYS518     -0.2717
     73  CB        22.5710   55.6170   58.6470 C.3   518  CYS518      0.0970
     74  SG        21.6310   57.1020   59.1730 S.3   518  CYS518     -0.0800
     75  N         24.6220   53.0290   59.4620 N.am  519  VAL519     -0.1979
     76  CA        25.0560   51.6560   59.1770 C.3   519  VAL519      0.1595
     77  C         24.5000   50.8290   60.3590 C.2   519  VAL519      0.2287
     78  O         24.0630   49.7020   60.1900 O.2   519  VAL519     -0.2864
     79  CB        26.6000   51.4940   59.1260 C.3   519  VAL519      0.0276
     80  CG1       26.9640   49.9900   59.1820 C.3   519  VAL519      0.0022
     81  CG2       27.1530   52.1000   57.8410 C.3   519  VAL519      0.0022
     82  N         20.5520   50.7780   59.7670 N.3   522  ASN522     -0.1225
     83  CA        20.1340   50.1410   58.5220 C.3   522  ASN522      0.1785
     84  C         20.7180   48.7580   58.2280 C.2   522  ASN522      0.2597
     85  O         20.1150   47.9740   57.5120 O.2   522  ASN522     -0.2718
     86  CB        20.4150   51.0750   57.3410 C.3   522  ASN522      0.1169
     87  CG        19.6270   52.3760   57.4300 C.2   522  ASN522      0.2627
     88  OD1       18.5910   52.4310   58.0770 O.2   522  ASN522     -0.2716
     89  ND2       20.1110   53.4180   56.7690 N.am  522  ASN522     -0.0877
     90  N         21.8840   48.4510   58.7790 N.am  523  GLN523     -0.1979
     91  CA        22.5080   47.1590   58.5180 C.3   523  GLN523      0.1601
     92  C         22.6400   46.2800   59.7570 C.2   523  GLN523      0.2287
     93  O         22.0800   45.1890   59.8030 O.2   523  GLN523     -0.2864
     94  CB        23.8940   47.3600   57.8730 C.3   523  GLN523      0.0394
     95  CG        23.8350   47.9700   56.4610 C.3   523  GLN523      0.0908
     96  CD        25.2170   48.1340   55.8090 C.2   523  GLN523      0.2608
     97  OE1       26.0770   48.8510   56.3200 O.2   523  GLN523     -0.2717
     98  NE2       25.4210   47.4650   54.6800 N.am  523  GLN523     -0.0878
@<TRIPOS>BOND
     1    32    31    1
     2    31    33    1
     3    31    28    1
     4    27    28    1
     5    28    29    1
     6    29    30    2
     7    22    21    2
     8    34    35    1
     9    21    20    1
    10    35    36    1
    11    35    38    1
    12    20    19    1
    13    20    23    1
    14    39    38    1
    15    39    40    1
    16    36    37    2
    17    42    40   am
    18    25    24    2
    19    23    24    1
    20    40    41    2
    21    24    26   am
    22    12    11    2
    23    53    51    1
    24    11    10    1
    25    50    51    2
    26    50    49    1
    27    51    52    1
    28     4     3    2
    29    18    17   ar
    30    18    16   ar
    31    17    15   ar
    32    16    14   ar
    33    48    49    1
    34    48    47    1
    35    15    14   ar
    36    10     9    1
    37    10    13    1
    38    43    44    1
    39     8     7    1
    40     3     9   am
    41     3     2    1
    42    14    13    1
    43    44    47    1
    44    44    45    1
    45     2     1    1
    46     2     5    1
    47     7     6    1
    48    98    96   am
    49     5     6    1
    50    54    45   am
    51    54    55    1
    52    45    46    2
    53    58    55    1
    54    58    59    1
    55    67    66    1
    56    61    59    1
    57    96    97    2
    58    96    95    1
    59    55    56    1
    60    95    94    1
    61    59    60    1
    62    89    87   am
    63    57    56    2
    64    66    68    1
    65    66    63    1
    66    86    87    1
    67    86    83    1
    68    87    88    2
    69    85    84    2
    70    81    79    1
    71    94    91    1
    72    63    62    1
    73    63    64    1
    74    84    83    1
    75    84    90   am
    76    91    90    1
    77    91    92    1
    78    83    82    1
    79    73    74    1
    80    73    70    1
    81    72    71    2
    82    79    76    1
    83    79    80    1
    84    76    75    1
    85    76    77    1
    86    64    65    2
    87    71    75   am
    88    71    70    1
    89    92    93    2
    90    70    69    1
    91    78    77    2
