@<TRIPOS>MOLECULE
tmp/2bajA00.pdb
 194 183 0 0 0
SMALL
GASTEIGER

@<TRIPOS>ATOM
      1  N         21.2220   -6.8880   34.1400 N.3    37  VAL37      -0.1245
      2  CA        21.1050   -7.0530   32.6940 C.3    37  VAL37       0.1561
      3  C         22.3550   -7.7030   32.1850 C.2    37  VAL37       0.2260
      4  O         23.4110   -7.2810   32.5580 O.2    37  VAL37      -0.2867
      5  CB        20.9000   -5.7020   32.0040 C.3    37  VAL37       0.0252
      6  CG1       20.8300   -5.8570   30.4520 C.3    37  VAL37       0.0019
      7  CG2       19.6590   -5.0220   32.5300 C.3    37  VAL37       0.0019
      8  N         19.8370   -8.4850   24.8860 N.3    50  ALA50      -0.1231
      9  CA        19.9880   -8.1960   26.2990 C.3    50  ALA50       0.1694
     10  C         18.9460   -8.9840   27.0860 C.2    50  ALA50       0.2592
     11  O         17.8770   -9.2440   26.5790 O.2    50  ALA50      -0.2718
     12  CB        19.8050   -6.7100   26.5370 C.3    50  ALA50       0.0304
     13  N         19.2330   -9.2640   28.3600 N.am   51  VAL51      -0.1966
     14  CA        18.3120   -9.9830   29.2490 C.3    51  VAL51       0.1727
     15  C         18.3140   -9.3590   30.6290 C.2    51  VAL51       0.2616
     16  O         19.3810   -9.2510   31.2450 O.2    51  VAL51      -0.2715
     17  CB        18.7310  -11.4830   29.4130 C.3    51  VAL51       0.0290
     18  CG1       17.6690  -12.2680   30.1230 C.3    51  VAL51       0.0023
     19  CG2       19.0290  -12.1070   28.0810 C.3    51  VAL51       0.0023
     20  N         17.1240   -9.0200   31.1340 N.am   52  LYS52      -0.1977
     21  CA        16.9630   -8.4890   32.4850 C.3    52  LYS52       0.1596
     22  C         16.3270   -9.5290   33.3930 C.2    52  LYS52       0.2287
     23  O         15.2240  -10.0100   33.1440 O.2    52  LYS52      -0.2864
     24  CB        16.1190   -7.1950   32.4700 C.3    52  LYS52       0.0298
     25  CG        16.1670   -6.3740   33.7800 C.3    52  LYS52       0.0038
     26  CD        15.6670   -4.9190   33.5430 C.3    52  LYS52       0.0206
     27  CE        14.6090   -4.4990   34.4930 C.3    52  LYS52       0.1093
     28  NZ        14.3060   -3.0270   34.4310 N.3    52  LYS52      -0.1314
     29  N          5.6910   -3.2040   40.3350 N.3    66  ARG66      -0.1245
     30  CA         6.6990   -2.6900   39.4280 C.3    66  ARG66       0.1563
     31  C          7.0240   -3.7120   38.3250 C.2    66  ARG66       0.2260
     32  O          7.2130   -3.3400   37.1530 O.2    66  ARG66      -0.2867
     33  CB         7.9420   -2.3160   40.2330 C.3    66  ARG66       0.0307
     34  CG         9.1660   -1.9060   39.4450 C.3    66  ARG66       0.0489
     35  CD        10.3830   -1.6020   40.3480 C.3    66  ARG66       0.2205
     36  NE        10.6190   -0.1700   40.5230 N.pl3  66  ARG66      -0.0865
     37  CZ        11.3070    0.6150   39.6830 C.cat  66  ARG66       0.5346
     38  NH1       11.8620    0.1440   38.5640 N.pl3  66  ARG66       0.1354
     39  NH2       11.4340    1.9030   39.9760 N.pl3  66  ARG66       0.1354
     40  N          4.0620   -3.8230   35.9930 N.3    69  ARG69      -0.1231
     41  CA         4.0380   -2.5520   35.2850 C.3    69  ARG69       0.1694
     42  C          5.0370   -2.6330   34.1300 C.2    69  ARG69       0.2591
     43  O          4.6420   -2.4620   32.9940 O.2    69  ARG69      -0.2718
     44  CB         4.3420   -1.3800   36.2280 C.3    69  ARG69       0.0321
     45  CG         4.6460   -0.0070   35.5390 C.3    69  ARG69       0.0489
     46  CD         5.3140    0.9790   36.4990 C.3    69  ARG69       0.2205
     47  NE         4.3720    1.4090   37.5400 N.pl3  69  ARG69      -0.0865
     48  CZ         4.5940    1.3840   38.8390 C.cat  69  ARG69       0.5346
     49  NH1        5.7410    0.9380   39.3400 N.pl3  69  ARG69       0.1354
     50  NH2        3.6330    1.8060   39.6710 N.pl3  69  ARG69       0.1354
     51  N          6.3000   -2.9780   34.4110 N.am   70  GLU70      -0.1979
     52  CA         7.2980   -3.0670   33.3390 C.3    70  GLU70       0.1602
     53  C          6.9140   -4.0610   32.2420 C.2    70  GLU70       0.2287
     54  O          7.1090   -3.7840   31.0050 O.2    70  GLU70      -0.2864
     55  CB         8.6970   -3.4270   33.8790 C.3    70  GLU70       0.0415
     56  CG         9.8000   -3.3660   32.8220 C.3    70  GLU70       0.1163
     57  CD        11.2110   -3.5920   33.3570 C.2    70  GLU70       0.3649
     58  OE1       11.3760   -4.0680   34.5080 O.co2  70  GLU70      -0.2457
     59  OE2       12.1780   -3.2680   32.6290 O.co2  70  GLU70      -0.2457
     60  N          4.0540   -2.7960   30.2150 N.3    73  LEU73      -0.1231
     61  CA         4.5630   -1.7050   29.3660 C.3    73  LEU73       0.1693
     62  C          5.2860   -2.2160   28.1240 C.2    73  LEU73       0.2591
     63  O          5.0260   -1.7740   27.0030 O.2    73  LEU73      -0.2718
     64  CB         5.4680   -0.7600   30.1810 C.3    73  LEU73       0.0284
     65  CG         5.3780    0.7480   29.8830 C.3    73  LEU73       0.0019
     66  CD1        5.1600    1.0770   28.3940 C.3    73  LEU73       0.0001
     67  CD2        4.2830    1.4070   30.7200 C.3    73  LEU73       0.0001
     68  N          6.1700   -3.1860   28.3070 N.am   74  LEU74      -0.1980
     69  CA         7.0590   -3.6410   27.2250 C.3    74  LEU74       0.1596
     70  C          6.3400   -4.5190   26.2540 C.2    74  LEU74       0.2287
     71  O          6.7450   -4.6560   25.0940 O.2    74  LEU74      -0.2864
     72  CB         8.2480   -4.3970   27.8090 C.3    74  LEU74       0.0297
     73  CG         9.2780   -3.5160   28.5360 C.3    74  LEU74       0.0022
     74  CD1       10.2610   -4.3520   29.3080 C.3    74  LEU74       0.0001
     75  CD2       10.0100   -2.6330   27.5440 C.3    74  LEU74       0.0001
     76  N          4.6690   -1.8950   23.8780 N.3    77  MET77      -0.1245
     77  CA         5.5350   -1.0790   23.0370 C.3    77  MET77       0.1570
     78  C          5.9090   -1.7770   21.7270 C.2    77  MET77       0.2261
     79  O          6.7980   -2.6540   21.6850 O.2    77  MET77      -0.2867
     80  CB         6.8070   -0.6120   23.7900 C.3    77  MET77       0.0387
     81  CG         6.5300    0.1820   25.1020 C.3    77  MET77       0.0595
     82  SD         5.8580    1.8790   24.9390 S.3    77  MET77      -0.1393
     83  CE         4.1650    1.6230   24.8770 C.3    77  MET77       0.0692
     84  N         11.3990    2.5480   20.1670 N.3    82  VAL82      -0.1231
     85  CA        11.1340    2.1660   21.5480 C.3    82  VAL82       0.1692
     86  C         11.4750    0.7070   21.7740 C.2    82  VAL82       0.2591
     87  O         11.2190   -0.1390   20.9370 O.2    82  VAL82      -0.2718
     88  CB         9.6350    2.4020   21.9250 C.3    82  VAL82       0.0266
     89  CG1        9.4080    2.2840   23.4350 C.3    82  VAL82       0.0020
     90  CG2        9.2330    3.7430   21.4890 C.3    82  VAL82       0.0020
     91  N         12.0200    0.4220   22.9530 N.am   83  ILE83      -0.1980
     92  CA        12.3800   -0.9220   23.3470 C.3    83  ILE83       0.1595
     93  C         11.1810   -1.8600   23.1850 C.2    83  ILE83       0.2287
     94  O         10.0450   -1.5310   23.5650 O.2    83  ILE83      -0.2864
     95  CB        12.9000   -0.9380   24.8430 C.3    83  ILE83       0.0276
     96  CG1       13.2680   -2.3720   25.2600 C.3    83  ILE83       0.0022
     97  CG2       11.8310   -0.4070   25.8030 C.3    83  ILE83       0.0022
     98  CD1       14.7090   -2.5980   25.5860 C.3    83  ILE83       0.0001
     99  N          9.8660   -6.0770   23.4560 N.3    85  LEU85      -0.1245
    100  CA        10.0930   -7.3990   24.0110 C.3    85  LEU85       0.1561
    101  C         10.2400   -8.3900   22.8700 C.2    85  LEU85       0.2260
    102  O          9.3620   -8.5220   22.0600 O.2    85  LEU85      -0.2867
    103  CB         8.9470   -7.7950   24.9410 C.3    85  LEU85       0.0270
    104  CG         9.3280   -8.3410   26.3220 C.3    85  LEU85       0.0019
    105  CD1       10.4050   -7.5200   26.9720 C.3    85  LEU85       0.0001
    106  CD2        8.0850   -8.4080   27.2030 C.3    85  LEU85       0.0001
    107  N         13.3020  -10.7460   31.0030 N.3   103  LEU103     -0.1245
    108  CA        12.8240  -10.1300   29.7480 C.3   103  LEU103      0.1561
    109  C         13.9530   -9.9900   28.7320 C.2   103  LEU103      0.2260
    110  O         15.0810   -9.7150   29.0730 O.2   103  LEU103     -0.2867
    111  CB        12.2190   -8.7640   30.0340 C.3   103  LEU103      0.0270
    112  CG        11.4160   -8.6710   31.3670 C.3   103  LEU103      0.0019
    113  CD1       11.5580   -7.3450   32.0420 C.3   103  LEU103      0.0001
    114  CD2        9.9870   -8.8950   31.1140 C.3   103  LEU103      0.0001
    115  N         15.3450   -8.3680   25.0490 N.3   105  THR105     -0.1218
    116  CA        15.2140   -7.4850   23.8940 C.3   105  THR105      0.1862
    117  C         16.4450   -7.5360   22.9810 C.2   105  THR105      0.2287
    118  O         17.3970   -8.2430   23.2840 O.2   105  THR105     -0.2866
    119  CB        15.0230   -6.0630   24.3930 C.3   105  THR105      0.1770
    120  OG1       15.0570   -5.1620   23.2760 O.3   105  THR105     -0.2211
    121  CG2       16.2050   -5.6440   25.3010 C.3   105  THR105      0.0375
    122  N          5.2650    7.0420   22.9880 N.3   130  ILE130     -0.1245
    123  CA         5.1960    6.8180   24.4490 C.3   130  ILE130      0.1561
    124  C          4.0830    7.7330   24.9810 C.2   130  ILE130      0.2260
    125  O          3.0750    7.2450   25.4730 O.2   130  ILE130     -0.2867
    126  CB         6.5410    7.0170   25.1510 C.3   130  ILE130      0.0252
    127  CG1        7.4950    5.8910   24.8010 C.3   130  ILE130      0.0019
    128  CG2        6.4510    6.8940   26.7060 C.3   130  ILE130      0.0019
    129  CD1        8.9630    6.2240   25.0180 C.3   130  ILE130      0.0001
    130  N          2.0430    7.6590   28.9130 N.3   135  ILE135     -0.1231
    131  CA         3.2260    7.3200   29.7030 C.3   135  ILE135      0.1692
    132  C          4.1820    8.4900   29.5780 C.2   135  ILE135      0.2592
    133  O          4.4960    8.9250   28.4380 O.2   135  ILE135     -0.2718
    134  CB         3.8910    6.0400   29.0880 C.3   135  ILE135      0.0266
    135  CG1        2.9410    4.8630   29.2040 C.3   135  ILE135      0.0019
    136  CG2        5.2420    5.7250   29.7150 C.3   135  ILE135      0.0020
    137  CD1        2.7450    4.1450   27.8480 C.3   135  ILE135      0.0001
    138  N          4.5930    9.0230   30.7120 N.am  136  ILE136     -0.1966
    139  CA         5.7410    9.9240   30.8060 C.3   136  ILE136      0.1727
    140  C          7.0190    9.0960   31.1420 C.2   136  ILE136      0.2616
    141  O          7.0060    8.2180   31.9760 O.2   136  ILE136     -0.2715
    142  CB         5.4630   11.0590   31.8620 C.3   136  ILE136      0.0290
    143  CG1        4.1980   11.8490   31.4920 C.3   136  ILE136      0.0022
    144  CG2        6.6150   12.0520   31.9590 C.3   136  ILE136      0.0023
    145  CD1        3.6980   12.7770   32.5950 C.3   136  ILE136      0.0001
    146  N          8.1190    9.3380   30.4520 N.am  137  HIS137     -0.1973
    147  CA         9.3520    8.6160   30.7780 C.3   137  HIS137      0.1656
    148  C          9.9180    9.0120   32.1440 C.2   137  HIS137      0.2291
    149  O         10.1740    8.1480   32.9980 O.2   137  HIS137     -0.2864
    150  CB        10.3870    8.8210   29.6720 C.3   137  HIS137      0.0771
    151  CG        11.5590    7.9030   29.7720 C.ar  137  HIS137      0.0820
    152  ND1       12.5380    8.0510   30.7320 N.ar  137  HIS137     -0.2267
    153  CD2       11.9030    6.8090   29.0490 C.ar  137  HIS137      0.1154
    154  CE1       13.4520    7.1100   30.5720 C.ar  137  HIS137      0.1986
    155  NE2       13.0910    6.3420   29.5620 N.ar  137  HIS137     -0.2212
    156  N         14.5120    4.2590   22.6500 N.3   155  ILE155     -0.1231
    157  CA        14.3160    4.7370   23.9900 C.3   155  ILE155      0.1692
    158  C         14.0760    3.5630   24.8700 C.2   155  ILE155      0.2592
    159  O         13.3290    2.6570   24.5220 O.2   155  ILE155     -0.2718
    160  CB        13.0530    5.6430   24.0580 C.3   155  ILE155      0.0266
    161  CG1       13.2390    6.8180   23.1120 C.3   155  ILE155      0.0019
    162  CG2       12.7930    6.0770   25.5200 C.3   155  ILE155      0.0020
    163  CD1       12.2060    7.8790   23.1880 C.3   155  ILE155      0.0001
    164  N         14.6800    3.6040   26.0380 N.am  156  LEU156     -0.1966
    165  CA        14.4640    2.5720   27.0110 C.3   156  LEU156      0.1728
    166  C         14.6380    3.1540   28.3880 C.2   156  LEU156      0.2616
    167  O         14.8860    4.3430   28.5200 O.2   156  LEU156     -0.2715
    168  CB        15.4160    1.3950   26.7590 C.3   156  LEU156      0.0311
    169  CG        16.9310    1.6070   26.7230 C.3   156  LEU156      0.0022
    170  CD1       17.5320    1.6300   28.1090 C.3   156  LEU156      0.0001
    171  CD2       17.6130    0.5230   25.9220 C.3   156  LEU156      0.0001
    172  N         14.4270    2.3150   29.3960 N.am  157  ASP157     -0.1957
    173  CA        14.6570    2.6450   30.7880 C.3   157  ASP157      0.1840
    174  C         15.2270    1.4140   31.4970 C.2   157  ASP157      0.2622
    175  O         14.4900    0.4740   31.8300 O.2   157  ASP157     -0.2715
    176  CB        13.3510    3.0620   31.4570 C.3   157  ASP157      0.1450
    177  CG        13.5660    3.6920   32.8170 C.2   157  ASP157      0.3671
    178  OD1       14.5910    3.4120   33.4680 O.co2 157  ASP157     -0.2456
    179  OD2       12.7680    4.5030   33.2970 O.co2 157  ASP157     -0.2456
    180  N         16.5380    1.3930   31.7150 N.am  158  PHE158     -0.1960
    181  CA        17.1500    0.2680   32.4550 C.3   158  PHE158      0.1771
    182  C         16.4060   -0.0580   33.8000 C.2   158  PHE158      0.2620
    183  O         16.1740   -1.2300   34.1420 O.2   158  PHE158     -0.2715
    184  CB        18.6590    0.5150   32.6820 C.3   158  PHE158      0.0574
    185  CG        19.5080    0.0700   31.5150 C.ar  158  PHE158     -0.0200
    186  CD1       19.5880    0.8450   30.3640 C.ar  158  PHE158     -0.0042
    187  CD2       20.1940   -1.1440   31.5480 C.ar  158  PHE158     -0.0042
    188  CE1       20.3570    0.4050   29.2580 C.ar  158  PHE158     -0.0003
    189  CE2       20.9550   -1.5760   30.4680 C.ar  158  PHE158     -0.0003
    190  CZ        21.0390   -0.8090   29.3230 C.ar  158  PHE158     -0.0000
    191  N         16.0510    0.9910   34.5310 N.am  159  GLY159     -0.1954
    192  CA        15.3010    0.8810   35.7740 C.3   159  GLY159      0.1869
    193  C         15.9520    0.0340   36.8410 C.2   159  GLY159      0.2309
    194  O         15.2580   -0.6120   37.6250 O.2   159  GLY159     -0.2863
@<TRIPOS>BOND
     1    84    85    1
     2    87    86    2
     3    90    88    1
     4    85    86    1
     5    85    88    1
     6    79    78    2
     7    78    77    1
     8    86    91   am
     9    88    89    1
    10   102   101    2
    11   156   157    1
    12   101   100    1
    13    91    92    1
    14   117   118    2
    15   117   116    1
    16   122   123    1
    17    77    80    1
    18    77    76    1
    19   161   163    1
    20   161   160    1
    21    93    92    1
    22    93    94    2
    23   120   119    1
    24    92    95    1
    25    99   100    1
    26    80    81    1
    27   116   119    1
    28   116   115    1
    29   157   160    1
    30   157   158    1
    31   100   103    1
    32   160   162    1
    33   119   121    1
    34   123   124    1
    35   123   126    1
    36   159   158    2
    37   127   129    1
    38   127   126    1
    39    95    96    1
    40    95    97    1
    41   158   164   am
    42    83    82    1
    43     8     9    1
    44    82    81    1
    45   103   104    1
    46   124   125    2
    47    71    70    2
    48   126   128    1
    49    96    98    1
    50   171   169    1
    51   164   165    1
    52    70    69    1
    53     9    12    1
    54     9    10    1
    55   104   105    1
    56   104   106    1
    57    11    10    2
    58   169   168    1
    59   169   170    1
    60   168   165    1
    61    63    62    2
    62   165   166    1
    63    10    13   am
    64    69    72    1
    65    69    68    1
    66    75    73    1
    67    72    73    1
    68   137   135    1
    69    19    17    1
    70    62    68   am
    71    62    61    1
    72    13    14    1
    73   166   167    2
    74   166   172   am
    75    66    65    1
    76   133   132    2
    77    73    74    1
    78   109   110    2
    79   109   108    1
    80   130   131    1
    81   153   155   ar
    82   153   151   ar
    83   134   135    1
    84   134   131    1
    85   134   136    1
    86    14    17    1
    87    14    15    1
    88   188   190   ar
    89   188   186   ar
    90   190   189   ar
    91    61    64    1
    92    61    60    1
    93   172   173    1
    94    17    18    1
    95   155   154   ar
    96   132   131    1
    97   132   138   am
    98   150   151    1
    99   150   147    1
   100   108   111    1
   101   108   107    1
   102   151   152   ar
   103    65    64    1
   104    65    67    1
   105   111   112    1
   106   186   185   ar
   107     6     5    1
   108   146   147    1
   109   146   140   am
   110   189   187   ar
   111   154   152   ar
   112    15    20   am
   113    15    16    2
   114   138   139    1
   115   147   148    1
   116   173   176    1
   117   173   174    1
   118   139   140    1
   119   139   142    1
   120    54    53    2
   121   114   112    1
   122    20    21    1
   123   140   141    2
   124   112   113    1
   125   176   177    1
   126   143   142    1
   127   143   145    1
   128   174   180   am
   129   174   175    2
   130   185   187   ar
   131   185   184    1
   132   180   181    1
   133   142   144    1
   134     5     7    1
   135     5     2    1
   136   148   149    2
   137     3     4    2
   138     3     2    1
   139    53    52    1
   140   181   184    1
   141   181   182    1
   142    24    21    1
   143    24    25    1
   144    21    22    1
   145    59    57   ar
   146     2     1    1
   147   177   179   ar
   148   177   178   ar
   149    56    57    1
   150    56    55    1
   151    43    42    2
   152    23    22    2
   153    52    55    1
   154    52    51    1
   155    57    58   ar
   156    26    25    1
   157    26    27    1
   158   182   183    2
   159   182   191   am
   160    42    51   am
   161    42    41    1
   162    28    27    1
   163   191   192    1
   164    41    40    1
   165    41    44    1
   166    45    44    1
   167    45    46    1
   168   192   193    1
   169    46    47    1
   170   193   194    2
   171    32    31    2
   172    47    48    2
   173    31    30    1
   174    38    37    1
   175    48    49    1
   176    48    50    1
   177    30    33    1
   178    30    29    1
   179    34    33    1
   180    34    35    1
   181    37    39    1
   182    37    36    2
   183    35    36    1
