@<TRIPOS>MOLECULE
tmp/2bakA00.pdb
 201 190 0 0 0
SMALL
GASTEIGER

@<TRIPOS>ATOM
      1  N         -9.5390    2.3950   28.6940 N.3    26  VAL26      -0.1231
      2  CA        -8.1340    2.0790   28.9980 C.3    26  VAL26       0.1692
      3  C         -7.1590    3.2680   28.8560 C.2    26  VAL26       0.2592
      4  O         -5.9470    3.1040   29.0380 O.2    26  VAL26      -0.2718
      5  CB        -7.6250    0.8650   28.1750 C.3    26  VAL26       0.0266
      6  CG1       -8.3460   -0.3910   28.6140 C.3    26  VAL26       0.0020
      7  CG2       -7.7970    1.0890   26.6930 C.3    26  VAL26       0.0020
      8  N         -7.6920    4.4610   28.5950 N.am   27  GLY27      -0.1957
      9  CA        -6.8690    5.6480   28.4100 C.3    27  GLY27       0.1869
     10  C         -7.4120    6.5590   27.3190 C.2    27  GLY27       0.2309
     11  O         -7.8650    6.1050   26.2740 O.2    27  GLY27      -0.2863
     12  N         -9.6750    5.1900   23.7940 N.3    34  VAL34      -0.1245
     13  CA        -9.5080    3.7550   23.5140 C.3    34  VAL34       0.1561
     14  C        -10.2570    2.8930   24.5370 C.2    34  VAL34       0.2260
     15  O        -10.2090    3.1460   25.7440 O.2    34  VAL34      -0.2867
     16  CB        -7.9850    3.3450   23.4860 C.3    34  VAL34       0.0252
     17  CG1       -7.7640    1.7880   23.3300 C.3    34  VAL34       0.0019
     18  CG2       -7.2430    4.0900   22.3750 C.3    34  VAL34       0.0019
     19  N         -8.9310   -4.0380   20.9780 N.3    47  ALA47      -0.1231
     20  CA        -8.9420   -2.6460   21.3960 C.3    47  ALA47       0.1694
     21  C         -9.5530   -1.7860   20.2850 C.2    47  ALA47       0.2592
     22  O         -9.2480   -1.9590   19.1090 O.2    47  ALA47      -0.2718
     23  CB        -7.5170   -2.1700   21.7160 C.3    47  ALA47       0.0304
     24  N        -10.4100   -0.8640   20.6860 N.am   48  VAL48      -0.1966
     25  CA       -11.1670   -0.0490   19.7660 C.3    48  VAL48       0.1727
     26  C        -10.8440    1.4070   20.0920 C.2    48  VAL48       0.2616
     27  O        -10.9950    1.8270   21.2380 O.2    48  VAL48      -0.2715
     28  CB       -12.7140   -0.3230   19.8740 C.3    48  VAL48       0.0290
     29  CG1      -13.4570    0.4350   18.8060 C.3    48  VAL48       0.0023
     30  CG2      -13.0280   -1.8170   19.7500 C.3    48  VAL48       0.0023
     31  N        -10.3790    2.1540   19.0910 N.am   49  LYS49      -0.1977
     32  CA       -10.0320    3.5740   19.2670 C.3    49  LYS49       0.1596
     33  C        -11.0080    4.4400   18.4930 C.2    49  LYS49       0.2287
     34  O        -11.1450    4.2610   17.2830 O.2    49  LYS49      -0.2864
     35  CB        -8.6040    3.8860   18.7800 C.3    49  LYS49       0.0298
     36  CG        -8.3170    5.3750   18.5870 C.3    49  LYS49       0.0038
     37  CD        -6.8090    5.7160   18.5340 C.3    49  LYS49       0.0206
     38  CE        -6.2020    5.5650   17.1570 C.3    49  LYS49       0.1093
     39  NZ        -4.7650    6.0630   17.1510 N.3    49  LYS49      -0.1314
     40  N         -3.3750    7.8350    9.0770 N.3    67  GLU67      -0.1245
     41  CA        -3.3870    6.6500    9.9550 C.3    67  GLU67       0.1567
     42  C         -4.1430    5.4440    9.2950 C.2    67  GLU67       0.2260
     43  O         -3.6690    4.3140    9.3340 O.2    67  GLU67      -0.2867
     44  CB        -3.9400    6.9730   11.3460 C.3    67  GLU67       0.0388
     45  CG        -3.7530    5.8080   12.3290 C.3    67  GLU67       0.1160
     46  CD        -4.2710    6.0920   13.7240 C.2    67  GLU67       0.3649
     47  OE1       -4.9150    7.1300   13.9210 O.co2  67  GLU67      -0.2457
     48  OE2       -4.0750    5.2510   14.6360 O.co2  67  GLU67      -0.2457
     49  N         -2.1600    3.8070    6.3510 N.3    70  LEU70      -0.1231
     50  CA        -1.0340    3.0810    6.9650 C.3    70  LEU70       0.1693
     51  C         -1.4210    1.7460    7.6000 C.2    70  LEU70       0.2591
     52  O         -0.7320    0.7240    7.3720 O.2    70  LEU70      -0.2718
     53  CB        -0.4010    3.9400    8.0580 C.3    70  LEU70       0.0284
     54  CG         1.1120    4.1320    8.1860 C.3    70  LEU70       0.0019
     55  CD1        1.4540    5.5450    8.6190 C.3    70  LEU70       0.0001
     56  CD2        1.5910    3.2110    9.2330 C.3    70  LEU70       0.0001
     57  N         -2.4930    1.7430    8.4040 N.am   71  LEU71      -0.1980
     58  CA        -2.8770    0.5270    9.1380 C.3    71  LEU71       0.1596
     59  C         -3.4660   -0.5250    8.1790 C.2    71  LEU71       0.2287
     60  O         -3.3240   -1.7340    8.3960 O.2    71  LEU71      -0.2864
     61  CB        -3.8520    0.8070   10.2950 C.3    71  LEU71       0.0297
     62  CG        -3.3780    1.7070   11.4330 C.3    71  LEU71       0.0022
     63  CD1       -4.4550    1.9810   12.4760 C.3    71  LEU71       0.0001
     64  CD2       -2.1570    1.1600   12.0890 C.3    71  LEU71       0.0001
     65  N         -0.2970   -2.4790    6.5400 N.3    74  MET74      -0.1245
     66  CA         0.6530   -3.2430    7.3750 C.3    74  MET74       0.1570
     67  C          0.1640   -4.6360    7.7720 C.2    74  MET74       0.2261
     68  O         -0.7930   -4.7670    8.5500 O.2    74  MET74      -0.2867
     69  CB         0.9900   -2.4870    8.6420 C.3    74  MET74       0.0387
     70  CG         1.3690   -1.1020    8.3280 C.3    74  MET74       0.0595
     71  SD         3.0140   -0.8430    8.4290 S.3    74  MET74      -0.1393
     72  CE         2.9220    0.4580    9.6260 C.3    74  MET74       0.0692
     73  N          4.3770   -5.8940   13.5270 N.3    79  VAL79      -0.1231
     74  CA         3.7640   -4.5820   13.3210 C.3    79  VAL79       0.1692
     75  C          2.2670   -4.6360   13.5620 C.2    79  VAL79       0.2591
     76  O          1.5970   -5.5780   13.1130 O.2    79  VAL79      -0.2718
     77  CB         4.0240   -4.0630   11.9010 C.3    79  VAL79       0.0266
     78  CG1        3.3860   -2.6520   11.6760 C.3    79  VAL79       0.0020
     79  CG2        5.5550   -4.0210   11.6060 C.3    79  VAL79       0.0020
     80  N          1.7310   -3.6320   14.2710 N.am   80  ILE80      -0.1980
     81  CA         0.2800   -3.5520   14.4730 C.3    80  ILE80       0.1595
     82  C         -0.4790   -3.5960   13.1510 C.2    80  ILE80       0.2287
     83  O         -0.0800   -3.0080   12.1810 O.2    80  ILE80      -0.2864
     84  CB        -0.1590   -2.3110   15.2620 C.3    80  ILE80       0.0276
     85  CG1       -1.5840   -2.5390   15.8030 C.3    80  ILE80       0.0022
     86  CG2       -0.0880   -1.0820   14.4180 C.3    80  ILE80       0.0022
     87  CD1       -1.9100   -1.6960   17.0350 C.3    80  ILE80       0.0001
     88  N        -11.2680    2.5090   14.8350 N.3   100  LEU100     -0.1245
     89  CA       -10.2610    1.5660   14.3780 C.3   100  LEU100      0.1561
     90  C        -10.1660    0.4040   15.3730 C.2   100  LEU100      0.2260
     91  O        -10.1760    0.6220   16.5520 O.2   100  LEU100     -0.2867
     92  CB        -8.9170    2.2810   14.2440 C.3   100  LEU100      0.0270
     93  CG        -8.8460    3.5480   13.3860 C.3   100  LEU100      0.0019
     94  CD1       -7.4690    4.1960   13.4500 C.3   100  LEU100      0.0001
     95  CD2       -9.1860    3.2440   11.9490 C.3   100  LEU100      0.0001
     96  N         -7.9870   -3.1630   16.5950 N.3   102  THR102     -0.1203
     97  CA        -6.7730   -3.9950   16.5080 C.3   102  THR102      0.1994
     98  C         -6.7230   -5.0150   17.6520 C.2   102  THR102      0.2618
     99  O         -7.5570   -4.9570   18.5580 O.2   102  THR102     -0.2717
    100  CB        -5.4860   -3.1260   16.5450 C.3   102  THR102      0.1784
    101  OG1       -5.3170   -2.5490   17.8470 O.3   102  THR102     -0.2211
    102  CG2       -5.5910   -1.8880   15.6570 C.3   102  THR102      0.0376
    103  N         -5.7510   -5.9470   17.5990 N.am  103  HIS103     -0.1961
    104  CA        -5.5080   -6.9110   18.6820 C.3   103  HIS103      0.1787
    105  C         -5.1780   -6.1480   19.9750 C.2   103  HIS103      0.2620
    106  O         -4.4720   -5.1380   19.9320 O.2   103  HIS103     -0.2715
    107  CB        -4.3460   -7.8640   18.3360 C.3   103  HIS103      0.0785
    108  CG        -4.6780   -8.8780   17.2860 C.ar  103  HIS103      0.0821
    109  ND1       -5.3270  -10.0590   17.5690 N.ar  103  HIS103     -0.2267
    110  CD2       -4.4560   -8.8840   15.9490 C.ar  103  HIS103      0.1154
    111  CE1       -5.5070  -10.7390   16.4500 C.ar  103  HIS103      0.1986
    112  NE2       -4.9820  -10.0510   15.4520 N.ar  103  HIS103     -0.2212
    113  N         -5.6880   -6.6150   21.1060 N.am  104  LEU104     -0.1963
    114  CA        -5.4850   -5.9080   22.3750 C.3   104  LEU104      0.1728
    115  C         -4.1000   -6.1820   22.9510 C.2   104  LEU104      0.2616
    116  O         -3.8070   -7.2870   23.3940 O.2   104  LEU104     -0.2715
    117  CB        -6.5430   -6.2820   23.4460 C.3   104  LEU104      0.0311
    118  CG        -6.3450   -5.6070   24.8240 C.3   104  LEU104      0.0022
    119  CD1       -6.5470   -4.0900   24.7680 C.3   104  LEU104      0.0001
    120  CD2       -7.2320   -6.1680   25.9350 C.3   104  LEU104      0.0001
    121  N         -3.2600   -5.1630   22.9650 N.am  105  MET105     -0.1963
    122  CA        -1.9320   -5.2880   23.5550 C.3   105  MET105      0.1736
    123  C         -2.0500   -5.1580   25.0590 C.2   105  MET105      0.2617
    124  O         -2.8880   -4.4360   25.5490 O.2   105  MET105     -0.2715
    125  CB        -0.9890   -4.2110   23.0100 C.3   105  MET105      0.0427
    126  CG        -0.7810   -4.2520   21.4990 C.3   105  MET105      0.0599
    127  SD        -0.7100   -5.9090   20.8130 S.3   105  MET105     -0.1393
    128  CE         0.8320   -6.4970   21.2770 C.3   105  MET105      0.0692
    129  N         -1.2080   -5.8650   25.7890 N.am  106  GLY106     -0.1955
    130  CA        -1.1920   -5.7420   27.2360 C.3   106  GLY106      0.1869
    131  C         -0.2260   -4.6460   27.6670 C.2   106  GLY106      0.2309
    132  O         -0.5440   -3.4540   27.6610 O.2   106  GLY106     -0.2863
    133  N          3.4590   -2.5400   27.7220 N.3   108  ASP108     -0.1239
    134  CA         4.5180   -2.0460   26.8590 C.3   108  ASP108      0.1674
    135  C          5.9060   -2.4120   27.4340 C.2   108  ASP108      0.2266
    136  O          6.0090   -2.9190   28.5390 O.2   108  ASP108     -0.2867
    137  CB         4.3350   -0.5340   26.6020 C.3   108  ASP108      0.1410
    138  CG         4.5270    0.3230   27.8520 C.2   108  ASP108      0.3668
    139  OD1        5.3760   -0.0330   28.6800 O.co2 108  ASP108     -0.2456
    140  OD2        3.8810    1.3730   28.0980 O.co2 108  ASP108     -0.2456
    141  N          8.7260   -2.1670    7.5210 N.3   134  ILE134     -0.1245
    142  CA         8.2160   -0.8170    7.2700 C.3   134  ILE134      0.1561
    143  C          9.2030    0.0460    6.4920 C.2   134  ILE134      0.2260
    144  O          8.7850    0.8100    5.6170 O.2   134  ILE134     -0.2867
    145  CB         7.7150   -0.0750    8.5550 C.3   134  ILE134      0.0252
    146  CG1        8.8370    0.3730    9.4610 C.3   134  ILE134      0.0019
    147  CG2        6.7400   -0.9080    9.3740 C.3   134  ILE134      0.0019
    148  CD1        8.4550    1.6410   10.2150 C.3   134  ILE134      0.0001
    149  N          8.4000    3.7580    4.8200 N.3   139  ILE139     -0.1245
    150  CA         7.7090    4.2950    5.9930 C.3   139  ILE139      0.1561
    151  C          8.7640    4.4550    7.0880 C.2   139  ILE139      0.2260
    152  O          9.5310    3.5110    7.3310 O.2   139  ILE139     -0.2867
    153  CB         6.5550    3.3540    6.4460 C.3   139  ILE139      0.0252
    154  CG1        5.4580    3.3160    5.3860 C.3   139  ILE139      0.0019
    155  CG2        5.9460    3.8580    7.7890 C.3   139  ILE139      0.0019
    156  CD1        4.5240    2.0890    5.4750 C.3   139  ILE139      0.0001
    157  N          9.1750    5.4470   11.2240 N.3   141  HIS141     -0.1241
    158  CA         8.3910    5.5650   12.4500 C.3   141  HIS141      0.1621
    159  C          8.5520    6.9570   13.0950 C.2   141  HIS141      0.2264
    160  O          7.5570    7.6490   13.3280 O.2   141  HIS141     -0.2867
    161  CB         8.7400    4.4400   13.4470 C.3   141  HIS141      0.0745
    162  CG         7.7910    4.3620   14.6020 C.ar  141  HIS141      0.0817
    163  ND1        7.6670    5.3730   15.5280 N.ar  141  HIS141     -0.2268
    164  CD2        6.8680    3.4370   14.9370 C.ar  141  HIS141      0.1154
    165  CE1        6.7210    5.0660   16.3970 C.ar  141  HIS141      0.1986
    166  NE2        6.2170    3.8920   16.0640 N.ar  141  HIS141     -0.2212
    167  N          5.3560   -3.3600   17.0120 N.3   159  ILE159     -0.1231
    168  CA         5.5810   -1.9350   16.9170 C.3   159  ILE159      0.1692
    169  C          4.2700   -1.2190   16.7170 C.2   159  ILE159      0.2592
    170  O          3.5220   -1.5430   15.8220 O.2   159  ILE159     -0.2718
    171  CB         6.5170   -1.5970   15.7570 C.3   159  ILE159      0.0266
    172  CG1        7.8970   -2.2030   16.0160 C.3   159  ILE159      0.0019
    173  CG2        6.6170   -0.0860   15.6080 C.3   159  ILE159      0.0020
    174  CD1        8.8250   -2.1090   14.8810 C.3   159  ILE159      0.0001
    175  N          4.0150   -0.2150   17.5400 N.am  160  LEU160     -0.1966
    176  CA         2.8400    0.6040   17.3680 C.3   160  LEU160      0.1728
    177  C          3.0800    2.0970   17.7030 C.2   160  LEU160      0.2616
    178  O          4.2150    2.5560   17.8040 O.2   160  LEU160     -0.2715
    179  CB         1.6110   -0.0450   18.0560 C.3   160  LEU160      0.0311
    180  CG         1.3910   -0.3290   19.5350 C.3   160  LEU160      0.0022
    181  CD1       -0.1190   -0.4250   19.8050 C.3   160  LEU160      0.0001
    182  CD2        1.9750   -1.6570   19.9670 C.3   160  LEU160      0.0001
    183  N          2.0100    2.8610   17.7690 N.am  161  ASP161     -0.1957
    184  CA         2.1090    4.3110   17.9900 C.3   161  ASP161      0.1840
    185  C          0.8970    4.7570   18.7690 C.2   161  ASP161      0.2622
    186  O         -0.1400    5.0890   18.1710 O.2   161  ASP161     -0.2715
    187  CB         2.2520    5.1220   16.6910 C.3   161  ASP161      0.1450
    188  CG         2.8640    6.5010   16.9450 C.2   161  ASP161      0.3671
    189  OD1        2.5030    7.0870   18.0050 O.co2 161  ASP161     -0.2456
    190  OD2        3.6890    7.0900   16.1860 O.co2 161  ASP161     -0.2456
    191  N          1.0440    4.7220   20.1040 N.am  162  PHE162     -0.1974
    192  CA         0.0370    5.2400   21.0460 C.3   162  PHE162      0.1639
    193  C         -0.0330    6.7690   21.0390 C.2   162  PHE162      0.2290
    194  O         -0.9520    7.3620   21.6100 O.2   162  PHE162     -0.2864
    195  CB         0.3070    4.7450   22.4660 C.3   162  PHE162      0.0560
    196  CG         0.3180    3.2570   22.5930 C.ar  162  PHE162     -0.0200
    197  CD1        1.4830    2.5930   22.8890 C.ar  162  PHE162     -0.0042
    198  CD2       -0.8370    2.5200   22.4080 C.ar  162  PHE162     -0.0042
    199  CE1        1.5170    1.2070   23.0020 C.ar  162  PHE162     -0.0003
    200  CE2       -0.8200    1.1280   22.5380 C.ar  162  PHE162     -0.0003
    201  CZ         0.3610    0.4770   22.8320 C.ar  162  PHE162     -0.0000
@<TRIPOS>BOND
     1   149   150    1
     2   154   156    1
     3   154   153    1
     4   144   143    2
     5   150   153    1
     6   150   151    1
     7    49    50    1
     8   153   155    1
     9   143   142    1
    10    65    66    1
    11    50    51    1
    12    50    53    1
    13   151   152    2
    14   142   141    1
    15   142   145    1
    16    52    51    2
    17    66    67    1
    18    66    69    1
    19    51    57   am
    20    67    68    2
    21    53    54    1
    22    59    60    2
    23    59    58    1
    24    54    55    1
    25    54    56    1
    26    70    71    1
    27    70    69    1
    28    57    58    1
    29    71    72    1
    30   145   147    1
    31   145   146    1
    32    40    41    1
    33    58    61    1
    34    42    43    2
    35    42    41    1
    36   146   148    1
    37    41    44    1
    38    61    62    1
    39   157   158    1
    40    44    45    1
    41    62    64    1
    42    62    63    1
    43    79    77    1
    44    78    77    1
    45    77    74    1
    46    95    93    1
    47    83    82    2
    48    45    46    1
    49   158   159    1
    50   158   161    1
    51   159   160    2
    52    76    75    2
    53    82    81    1
    54    74    73    1
    55    74    75    1
    56    93    94    1
    57    93    92    1
    58   161   162    1
    59    75    80   am
    60    46    47   ar
    61    46    48   ar
    62    92    89    1
    63    80    81    1
    64    89    88    1
    65    89    90    1
    66    86    84    1
    67    81    84    1
    68   162   164   ar
    69   162   163   ar
    70   174   172    1
    71   164   166   ar
    72    84    85    1
    73    90    91    2
    74   112   110   ar
    75   112   111   ar
    76   163   165   ar
    77   173   171    1
    78   102   100    1
    79   171   172    1
    80   171   168    1
    81    85    87    1
    82   170   169    2
    83   110   108   ar
    84   166   165   ar
    85   190   188   ar
    86   111   109   ar
    87    97   100    1
    88    97    96    1
    89    97    98    1
    90   100   101    1
    91   187   188    1
    92   187   184    1
    93   169   168    1
    94   169   175   am
    95   168   167    1
    96   188   189   ar
    97    39    38    1
    98    38    37    1
    99    34    33    2
   100   108   109   ar
   101   108   107    1
   102   176   175    1
   103   176   177    1
   104   176   179    1
   105   103    98   am
   106   103   104    1
   107    98    99    2
   108   177   183   am
   109   177   178    2
   110   183   184    1
   111   184   185    1
   112   179   180    1
   113   186   185    2
   114   107   104    1
   115    33    32    1
   116    37    36    1
   117    36    35    1
   118   104   105    1
   119   185   191   am
   120    35    32    1
   121    29    28    1
   122    31    32    1
   123    31    26   am
   124    22    21    2
   125   180   181    1
   126   180   182    1
   127    30    28    1
   128    25    28    1
   129    25    26    1
   130    25    24    1
   131   106   105    2
   132   105   113   am
   133    26    27    2
   134   191   192    1
   135    21    24   am
   136    21    20    1
   137   127   128    1
   138   127   126    1
   139    19    20    1
   140   193   192    1
   141   193   194    2
   142   192   195    1
   143   113   114    1
   144    20    23    1
   145   126   125    1
   146    18    16    1
   147   114   115    1
   148   114   117    1
   149   198   200   ar
   150   198   196   ar
   151   195   196    1
   152   200   201   ar
   153   196   197   ar
   154   201   199   ar
   155   197   199   ar
   156   115   121   am
   157   115   116    2
   158   121   122    1
   159   125   122    1
   160    17    16    1
   161   117   118    1
   162    16    13    1
   163    13    12    1
   164    13    14    1
   165   122   123    1
   166    14    15    2
   167   119   118    1
   168   118   120    1
   169   123   124    2
   170   123   129   am
   171   129   130    1
   172    11    10    2
   173   137   134    1
   174   137   138    1
   175     7     5    1
   176   134   135    1
   177   134   133    1
   178   130   131    1
   179    10     9    1
   180   135   136    2
   181   132   131    2
   182   138   140   ar
   183   138   139   ar
   184     5     6    1
   185     5     2    1
   186     9     8    1
   187     8     3   am
   188     1     2    1
   189     3     2    1
   190     3     4    2
