@<TRIPOS>MOLECULE
tmp/2balA00.pdb
 150 137 0 0 0
SMALL
GASTEIGER

@<TRIPOS>ATOM
      1  N         -8.4240    2.0760   28.1550 N.3    26  VAL26      -0.1245
      2  CA        -7.0450    1.7350   28.5350 C.3    26  VAL26       0.1561
      3  C         -6.0900    2.9290   28.5620 C.2    26  VAL26       0.2260
      4  O         -4.9930    2.8160   29.1130 O.2    26  VAL26      -0.2867
      5  CB        -6.4370    0.6040   27.6510 C.3    26  VAL26       0.0252
      6  CG1       -7.2640   -0.6770   27.7750 C.3    26  VAL26       0.0019
      7  CG2       -6.3020    1.0260   26.1970 C.3    26  VAL26       0.0019
      8  N         -4.0850    7.0340   23.0240 N.3    29  GLY29      -0.1225
      9  CA        -3.2810    6.6750   21.8630 C.3    29  GLY29       0.1811
     10  C         -3.0580    7.8730   20.9510 C.2    29  GLY29       0.2280
     11  O         -3.4280    8.9980   21.2920 O.2    29  GLY29      -0.2866
     12  N         -8.3900    4.9060   23.3280 N.3    34  VAL34      -0.1245
     13  CA        -8.4140    3.4960   23.0050 C.3    34  VAL34       0.1561
     14  C         -9.1620    2.7550   24.0920 C.2    34  VAL34       0.2260
     15  O         -8.9900    3.0370   25.2720 O.2    34  VAL34      -0.2867
     16  CB        -6.9810    2.9280   22.8910 C.3    34  VAL34       0.0252
     17  CG1       -6.9910    1.4020   22.7210 C.3    34  VAL34       0.0019
     18  CG2       -6.2550    3.5800   21.7360 C.3    34  VAL34       0.0019
     19  N         -8.3790   -3.8690   20.5270 N.3    47  ALA47      -0.1245
     20  CA        -8.1990   -2.4750   20.8960 C.3    47  ALA47       0.1562
     21  C         -8.9670   -1.6060   19.8950 C.2    47  ALA47       0.2260
     22  O         -8.7540   -1.7090   18.6900 O.2    47  ALA47      -0.2867
     23  CB        -6.7220   -2.1250   20.8710 C.3    47  ALA47       0.0290
     24  N         -9.6130    2.2340   18.8520 N.3    49  LYS49      -0.1245
     25  CA        -9.2260    3.6330   18.9730 C.3    49  LYS49       0.1561
     26  C        -10.2680    4.5210   18.2800 C.2    49  LYS49       0.2260
     27  O        -10.4830    4.4040   17.0740 O.2    49  LYS49      -0.2867
     28  CB        -7.8490    3.8520   18.3210 C.3    49  LYS49       0.0271
     29  CG        -7.4370    5.3170   18.1590 C.3    49  LYS49       0.0035
     30  CD        -5.9300    5.5150   18.2440 C.3    49  LYS49       0.0206
     31  CE        -5.3130    5.8130   16.9020 C.3    49  LYS49       0.1093
     32  NZ        -3.8550    6.1450   16.9810 N.3    49  LYS49      -0.1314
     33  N         -3.2710    7.9300    8.7830 N.3    67  GLU67      -0.1245
     34  CA        -3.2550    6.8330    9.7400 C.3    67  GLU67       0.1567
     35  C         -4.0110    5.5990    9.2030 C.2    67  GLU67       0.2260
     36  O         -3.5230    4.4800    9.3040 O.2    67  GLU67      -0.2867
     37  CB        -3.8170    7.2650   11.1230 C.3    67  GLU67       0.0388
     38  CG        -3.7620    6.0990   12.1090 C.3    67  GLU67       0.1160
     39  CD        -3.8830    6.4690   13.5760 C.2    67  GLU67       0.3649
     40  OE1       -4.3700    7.5820   13.9190 O.co2  67  GLU67      -0.2457
     41  OE2       -3.5210    5.5950   14.3920 O.co2  67  GLU67      -0.2457
     42  N         -2.2450    1.8970    8.2680 N.3    71  LEU71      -0.1245
     43  CA        -2.7130    0.7490    9.0190 C.3    71  LEU71       0.1561
     44  C         -3.2940   -0.3170    8.1110 C.2    71  LEU71       0.2260
     45  O         -3.1660   -1.5040    8.3880 O.2    71  LEU71      -0.2867
     46  CB        -3.7710    1.1920   10.0430 C.3    71  LEU71       0.0270
     47  CG        -3.4220    1.2440   11.5340 C.3    71  LEU71       0.0019
     48  CD1       -1.9730    1.4930   11.7920 C.3    71  LEU71       0.0001
     49  CD2       -4.2790    2.2700   12.2410 C.3    71  LEU71       0.0001
     50  N          1.6530   -3.4350   13.9570 N.3    80  ILE80      -0.1245
     51  CA         0.2150   -3.4240   14.2350 C.3    80  ILE80       0.1561
     52  C         -0.5390   -3.2160   12.9150 C.2    80  ILE80       0.2260
     53  O         -0.1710   -2.3590   12.1110 O.2    80  ILE80      -0.2867
     54  CB        -0.1390   -2.3430   15.3200 C.3    80  ILE80       0.0252
     55  CG1       -1.4060   -2.7160   16.0840 C.3    80  ILE80       0.0019
     56  CG2       -0.3140   -0.9520   14.7200 C.3    80  ILE80       0.0019
     57  CD1       -1.2560   -3.9680   16.9800 C.3    80  ILE80       0.0001
     58  N        -10.8570    2.5850   14.7050 N.3   100  LEU100     -0.1245
     59  CA        -9.8890    1.6350   14.1740 C.3   100  LEU100      0.1561
     60  C         -9.7010    0.5040   15.1800 C.2   100  LEU100      0.2260
     61  O         -9.5250    0.7420   16.3790 O.2   100  LEU100     -0.2867
     62  CB        -8.5500    2.3220   13.8810 C.3   100  LEU100      0.0270
     63  CG        -8.5920    3.6260   13.0730 C.3   100  LEU100      0.0019
     64  CD1       -7.2960    4.4300   13.2550 C.3   100  LEU100      0.0001
     65  CD2       -8.8400    3.3560   11.6140 C.3   100  LEU100      0.0001
     66  N         -7.6940   -3.1010   16.1730 N.3   102  THR102     -0.1203
     67  CA        -6.4920   -3.9310   16.0390 C.3   102  THR102      0.1994
     68  C         -6.4570   -4.9660   17.1630 C.2   102  THR102      0.2618
     69  O         -7.3620   -4.9930   18.0110 O.2   102  THR102     -0.2717
     70  CB        -5.2330   -3.0690   16.1670 C.3   102  THR102      0.1784
     71  OG1       -5.1250   -2.5840   17.5160 O.3   102  THR102     -0.2211
     72  CG2       -5.3000   -1.8260   15.3060 C.3   102  THR102      0.0376
     73  N         -5.4100   -5.7990   17.1900 N.am  103  HIS103     -0.1961
     74  CA        -5.1830   -6.6990   18.3300 C.3   103  HIS103      0.1787
     75  C         -4.9210   -5.8770   19.5930 C.2   103  HIS103      0.2620
     76  O         -4.3710   -4.7850   19.5330 O.2   103  HIS103     -0.2715
     77  CB        -3.9860   -7.6400   18.0970 C.3   103  HIS103      0.0785
     78  CG        -4.2290   -8.6810   17.0530 C.ar  103  HIS103      0.0821
     79  ND1       -5.2220   -9.6290   17.1640 N.ar  103  HIS103     -0.2267
     80  CD2       -3.6200   -8.9130   15.8660 C.ar  103  HIS103      0.1154
     81  CE1       -5.2170  -10.4010   16.0910 C.ar  103  HIS103      0.1986
     82  NE2       -4.2520   -9.9900   15.2870 N.ar  103  HIS103     -0.2212
     83  N         -5.3490   -6.4080   20.7280 N.am  104  LEU104     -0.1963
     84  CA        -4.9800   -5.8680   22.0270 C.3   104  LEU104      0.1728
     85  C         -3.6950   -6.5550   22.4880 C.2   104  LEU104      0.2616
     86  O         -3.6400   -7.7870   22.5870 O.2   104  LEU104     -0.2715
     87  CB        -6.0880   -6.1330   23.0430 C.3   104  LEU104      0.0311
     88  CG        -5.8680   -5.5900   24.4600 C.3   104  LEU104      0.0022
     89  CD1       -6.0670   -4.0750   24.4860 C.3   104  LEU104      0.0001
     90  CD2       -6.8040   -6.2750   25.4460 C.3   104  LEU104      0.0001
     91  N         -2.6760   -5.7600   22.7900 N.am  105  MET105     -0.1963
     92  CA        -1.4230   -6.2870   23.3200 C.3   105  MET105      0.1736
     93  C         -1.4870   -6.2840   24.8500 C.2   105  MET105      0.2617
     94  O         -2.4630   -5.8110   25.4130 O.2   105  MET105     -0.2715
     95  CB        -0.2540   -5.4580   22.8030 C.3   105  MET105      0.0427
     96  CG        -0.1740   -5.3900   21.2600 C.3   105  MET105      0.0599
     97  SD        -0.0100   -6.9970   20.4360 S.3   105  MET105     -0.1393
     98  CE         1.6550   -7.4920   20.9110 C.3   105  MET105      0.0692
     99  N         -0.4620   -6.8050   25.5180 N.am  106  GLY106     -0.1940
    100  CA        -0.4970   -6.9910   26.9720 C.3   106  GLY106      0.2014
    101  C          0.1690   -5.8850   27.7830 C.2   106  GLY106      0.2639
    102  O         -0.2260   -5.6110   28.9110 O.2   106  GLY106     -0.2714
    103  N          1.1780   -5.2490   27.1960 N.am  107  ALA107     -0.1963
    104  CA         1.9680   -4.2070   27.8550 C.3   107  ALA107      0.1728
    105  C          2.8260   -3.5150   26.8090 C.2   107  ALA107      0.2616
    106  O          2.9820   -4.0320   25.7170 O.2   107  ALA107     -0.2715
    107  CB         2.8650   -4.8210   28.9250 C.3   107  ALA107      0.0334
    108  N          3.3680   -2.3440   27.1260 N.am  108  ASP108     -0.1971
    109  CA         4.3920   -1.7460   26.2710 C.3   108  ASP108      0.1709
    110  C          5.7660   -1.9970   26.9000 C.2   108  ASP108      0.2293
    111  O          5.8490   -2.4560   28.0290 O.2   108  ASP108     -0.2864
    112  CB         4.1120   -0.2670   25.9660 C.3   108  ASP108      0.1436
    113  CG         4.0550    0.6070   27.1990 C.2   108  ASP108      0.3671
    114  OD1        4.8860    0.4310   28.1070 O.co2 108  ASP108     -0.2456
    115  OD2        3.2140    1.5280   27.3410 O.co2 108  ASP108     -0.2456
    116  N          6.4800   -0.7510   30.3950 N.3   111  ASN111     -0.1240
    117  CA         5.8720   -1.5440   31.4710 C.3   111  ASN111      0.1653
    118  C          6.7090   -2.7660   31.8300 C.2   111  ASN111      0.2266
    119  O          6.9430   -3.0290   33.0070 O.2   111  ASN111     -0.2867
    120  CB         4.4520   -2.0420   31.1020 C.3   111  ASN111      0.1155
    121  CG         3.5110   -0.9300   30.6280 C.2   111  ASN111      0.2627
    122  OD1        3.7820    0.2610   30.8090 O.2   111  ASN111     -0.2716
    123  ND2        2.3960   -1.3260   30.0120 N.am  111  ASN111     -0.0877
    124  N          7.3320    3.2430   24.5370 N.3   150  SER150     -0.1217
    125  CA         5.8970    3.3260   24.7440 C.3   150  SER150      0.1889
    126  C          5.0970    3.0020   23.4860 C.2   150  SER150      0.2288
    127  O          3.9130    2.7550   23.5830 O.2   150  SER150     -0.2866
    128  CB         5.5010    4.7020   25.3050 C.3   150  SER150      0.2089
    129  OG         5.6820    5.7090   24.3360 O.3   150  SER150     -0.2183
    130  N          4.7860   -2.6080   21.7660 N.3   153  ALA153     -0.1245
    131  CA         3.8710   -3.3940   22.5830 C.3   153  ALA153      0.1562
    132  C          4.2630   -4.8700   22.5190 C.2   153  ALA153      0.2260
    133  O          4.7220   -5.3580   21.4890 O.2   153  ALA153     -0.2867
    134  CB         2.4380   -3.1870   22.1060 C.3   153  ALA153      0.0290
    135  N          3.8600    0.1380   17.1200 N.3   162  LEU162     -0.1231
    136  CA         2.7060    1.0370   16.9780 C.3   162  LEU162      0.1693
    137  C          3.1370    2.4500   16.5480 C.2   162  LEU162      0.2592
    138  O          4.2730    2.8540   16.7760 O.2   162  LEU162     -0.2718
    139  CB         1.9610    1.1950   18.3130 C.3   162  LEU162      0.0284
    140  CG         1.6600    0.0740   19.3040 C.3   162  LEU162      0.0019
    141  CD1        1.0780    0.7310   20.5660 C.3   162  LEU162      0.0001
    142  CD2        0.6780   -0.9640   18.7860 C.3   162  LEU162      0.0001
    143  N          2.2090    3.1940   15.9470 N.am  163  ASP163     -0.1974
    144  CA         2.3420    4.6570   15.7030 C.3   163  ASP163      0.1709
    145  C          3.4580    5.0700   14.7400 C.2   163  ASP163      0.2293
    146  O          3.9010    6.2210   14.7630 O.2   163  ASP163     -0.2864
    147  CB         2.5240    5.4520   17.0080 C.3   163  ASP163      0.1436
    148  CG         1.3540    5.3070   17.9620 C.2   163  ASP163      0.3671
    149  OD1        0.2840    4.8260   17.5260 O.co2 163  ASP163     -0.2456
    150  OD2        1.4070    5.6660   19.1620 O.co2 163  ASP163     -0.2456
@<TRIPOS>BOND
     1    44    45    2
     2    44    43    1
     3    42    43    1
     4    33    34    1
     5    43    46    1
     6    35    36    2
     7    35    34    1
     8    34    37    1
     9    46    47    1
    10    37    38    1
    11    47    48    1
    12    47    49    1
    13    65    63    1
    14    38    39    1
    15    53    52    2
    16    52    51    1
    17    63    64    1
    18    63    62    1
    19    39    40   ar
    20    39    41   ar
    21    62    59    1
    22    50    51    1
    23    59    58    1
    24    59    60    1
    25    51    54    1
    26    56    54    1
    27   145   146    2
    28   145   144    1
    29    60    61    2
    30    82    80   ar
    31    82    81   ar
    32    72    70    1
    33    54    55    1
    34   144   143    1
    35   144   147    1
    36    80    78   ar
    37   143   137   am
    38    67    70    1
    39    67    66    1
    40    67    68    1
    41    55    57    1
    42    81    79   ar
    43    70    71    1
    44   137   138    2
    45   137   136    1
    46    31    32    1
    47    31    30    1
    48   136   135    1
    49   136   139    1
    50   147   148    1
    51    78    79   ar
    52    78    77    1
    53    27    26    2
    54    68    73   am
    55    68    69    2
    56    73    74    1
    57   149   148   ar
    58   148   150   ar
    59    77    74    1
    60    29    30    1
    61    29    28    1
    62    26    25    1
    63   139   140    1
    64    28    25    1
    65    74    75    1
    66    22    21    2
    67   142   140    1
    68    24    25    1
    69   140   141    1
    70    76    75    2
    71    75    83   am
    72    21    20    1
    73    97    98    1
    74    97    96    1
    75    19    20    1
    76    83    84    1
    77    23    20    1
    78    10    11    2
    79    10     9    1
    80    96    95    1
    81   133   132    2
    82    18    16    1
    83   130   131    1
    84     9     8    1
    85    84    85    1
    86    84    87    1
    87   134   131    1
    88    85    86    2
    89    85    91   am
    90   132   131    1
    91    17    16    1
    92    91    92    1
    93    95    92    1
    94    16    13    1
    95    13    12    1
    96    13    14    1
    97    87    88    1
    98    92    93    1
    99   126   127    2
   100   126   125    1
   101    14    15    2
   102   129   128    1
   103    88    89    1
   104    88    90    1
   105   124   125    1
   106   125   128    1
   107    93    94    2
   108    93    99   am
   109    99   100    1
   110   106   105    2
   111   112   109    1
   112   112   113    1
   113     7     5    1
   114   109   110    1
   115   109   108    1
   116   105   108   am
   117   105   104    1
   118   110   111    2
   119   100   101    1
   120   103   101   am
   121   103   104    1
   122   113   115   ar
   123   113   114   ar
   124     5     6    1
   125     5     2    1
   126   101   102    2
   127   104   107    1
   128     1     2    1
   129     2     3    1
   130     3     4    2
   131   123   121   am
   132   116   117    1
   133   121   122    2
   134   121   120    1
   135   120   117    1
   136   117   118    1
   137   118   119    2
