@<TRIPOS>MOLECULE
tmp/2banA00.pdb
 161 161 0 0 0
SMALL
GASTEIGER

@<TRIPOS>ATOM
      1  N        140.9160  -16.0840   76.2170 N.3    95  PRO95      -0.2116
      2  CA       140.0280  -16.7980   75.3000 C.3    95  PRO95       0.1372
      3  C        139.1920  -17.7630   76.0890 C.2    95  PRO95       0.2244
      4  O        139.6980  -18.4480   76.9540 O.2    95  PRO95      -0.2868
      5  CB       140.9980  -17.5220   74.3830 C.3    95  PRO95       0.0268
      6  CG       142.1230  -17.8310   75.2910 C.3    95  PRO95       0.0207
      7  CD       142.3070  -16.5320   76.0360 C.3    95  PRO95       0.0892
      8  N        137.3140  -22.9890   71.4420 N.3   100  LEU100     -0.1231
      9  CA       138.6060  -23.4370   70.9410 C.3   100  LEU100      0.1693
     10  C        138.3350  -24.6640   70.0900 C.2   100  LEU100      0.2592
     11  O        137.3550  -25.3760   70.3220 O.2   100  LEU100     -0.2718
     12  CB       139.5150  -23.8370   72.1000 C.3   100  LEU100      0.0284
     13  CG       140.1120  -22.7630   72.9950 C.3   100  LEU100      0.0019
     14  CD1      140.6020  -23.4110   74.2630 C.3   100  LEU100      0.0001
     15  CD2      141.2440  -22.0540   72.2650 C.3   100  LEU100      0.0001
     16  N        139.1850  -24.9280   69.1060 N.am  101  LYS101     -0.1966
     17  CA       138.9660  -26.1150   68.2910 C.3   101  LYS101      0.1728
     18  C        139.8530  -27.2720   68.7580 C.2   101  LYS101      0.2616
     19  O        141.0420  -27.0980   69.0380 O.2   101  LYS101     -0.2715
     20  CB       139.2060  -25.8250   66.8000 C.3   101  LYS101      0.0311
     21  CG       138.9080  -27.0380   65.9060 C.3   101  LYS101      0.0038
     22  CD       138.9660  -26.7250   64.4090 C.3   101  LYS101      0.0206
     23  CE       138.5580  -27.9480   63.5780 C.3   101  LYS101      0.1093
     24  NZ       138.1260  -27.5980   62.1900 N.3   101  LYS101     -0.1314
     25  N        139.2550  -28.4520   68.8560 N.am  102  LYS102     -0.1963
     26  CA       139.9720  -29.6390   69.2890 C.3   102  LYS102      0.1728
     27  C        141.2400  -29.8370   68.4650 C.2   102  LYS102      0.2616
     28  O        141.2760  -29.5460   67.2720 O.2   102  LYS102     -0.2715
     29  CB       139.0830  -30.8730   69.1240 C.3   102  LYS102      0.0311
     30  CG       138.7190  -31.1300   67.6650 C.3   102  LYS102      0.0038
     31  CD       137.9700  -32.4420   67.4330 C.3   102  LYS102      0.0206
     32  CE       137.6300  -32.6030   65.9410 C.3   102  LYS102      0.1093
     33  NZ       136.8970  -33.8650   65.6230 N.3   102  LYS102     -0.1314
     34  N        142.2840  -30.3270   69.1140 N.am  103  LYS103     -0.1977
     35  CA       143.5360  -30.6150   68.4370 C.3   103  LYS103      0.1596
     36  C        143.8920  -32.0350   68.8670 C.2   103  LYS103      0.2287
     37  O        143.8620  -32.3500   70.0650 O.2   103  LYS103     -0.2864
     38  CB       144.6290  -29.6430   68.8800 C.3   103  LYS103      0.0298
     39  CG       144.9680  -28.5760   67.8610 C.3   103  LYS103      0.0038
     40  CD       143.7800  -27.6810   67.5580 C.3   103  LYS103      0.0206
     41  CE       144.1430  -26.6280   66.5110 C.3   103  LYS103      0.1093
     42  NZ       143.0300  -25.6680   66.2580 N.3   103  LYS103     -0.1314
     43  N        148.4800  -31.9430   71.6820 N.3   106  VAL106     -0.1245
     44  CA       148.7680  -30.6190   72.2110 C.3   106  VAL106      0.1561
     45  C        149.8290  -30.7200   73.3040 C.2   106  VAL106      0.2260
     46  O        149.6780  -31.4780   74.2610 O.2   106  VAL106     -0.2867
     47  CB       147.4950  -29.9780   72.7940 C.3   106  VAL106      0.0252
     48  CG1      147.8330  -28.6970   73.5210 C.3   106  VAL106      0.0019
     49  CG2      146.5120  -29.6970   71.6830 C.3   106  VAL106      0.0019
     50  N        149.3770  -24.7440   65.4760 N.3   179  VAL179     -0.1231
     51  CA       148.8930  -23.5370   66.1090 C.3   179  VAL179      0.1692
     52  C        149.5230  -23.3880   67.4930 C.2   179  VAL179      0.2592
     53  O        149.3760  -24.2440   68.3540 O.2   179  VAL179     -0.2718
     54  CB       147.3560  -23.5110   66.2040 C.3   179  VAL179      0.0266
     55  CG1      146.7510  -23.8220   64.8440 C.3   179  VAL179      0.0020
     56  CG2      146.8730  -24.4670   67.2460 C.3   179  VAL179      0.0020
     57  N        150.2590  -22.2970   67.6820 N.am  180  ILE180     -0.1966
     58  CA       150.9330  -21.9950   68.9420 C.3   180  ILE180      0.1727
     59  C        150.1610  -20.9050   69.6520 C.2   180  ILE180      0.2616
     60  O        149.7350  -19.9400   69.0240 O.2   180  ILE180     -0.2715
     61  CB       152.3450  -21.4520   68.6970 C.3   180  ILE180      0.0290
     62  CG1      153.2160  -22.5250   68.0620 C.3   180  ILE180      0.0022
     63  CG2      152.9420  -20.9540   69.9820 C.3   180  ILE180      0.0023
     64  CD1      154.5620  -22.0050   67.6520 C.3   180  ILE180      0.0001
     65  N        149.9760  -21.0650   70.9560 N.am  181  TYR181     -0.1974
     66  CA       149.2820  -20.0760   71.7650 C.3   181  TYR181      0.1639
     67  C        150.1550  -19.7870   72.9540 C.2   181  TYR181      0.2290
     68  O        150.2890  -20.6330   73.8320 O.2   181  TYR181     -0.2864
     69  CB       147.9480  -20.5950   72.2770 C.3   181  TYR181      0.0560
     70  CG       147.3630  -19.7260   73.3700 C.ar  181  TYR181     -0.0198
     71  CD1      147.3420  -18.3390   73.2490 C.ar  181  TYR181     -0.0009
     72  CD2      146.8220  -20.2860   74.5240 C.ar  181  TYR181     -0.0009
     73  CE1      146.7970  -17.5320   74.2530 C.ar  181  TYR181      0.0417
     74  CE2      146.2740  -19.4910   75.5360 C.ar  181  TYR181      0.0417
     75  CZ       146.2660  -18.1150   75.3950 C.ar  181  TYR181      0.1957
     76  OH       145.7460  -17.3180   76.3990 O.3   181  TYR181     -0.2866
     77  N        151.5090  -23.2630   74.3420 N.3   188  TYR188     -0.1227
     78  CA       150.7170  -24.4600   74.0830 C.3   188  TYR188      0.1736
     79  C        150.6350  -24.6940   72.5900 C.2   188  TYR188      0.2595
     80  O        150.0320  -23.9130   71.8700 O.2   188  TYR188     -0.2718
     81  CB       149.3110  -24.3270   74.6580 C.3   188  TYR188      0.0548
     82  CG       149.2990  -24.0550   76.1370 C.ar  188  TYR188     -0.0200
     83  CD1      149.6800  -22.8150   76.6320 C.ar  188  TYR188     -0.0009
     84  CD2      148.8810  -25.0210   77.0420 C.ar  188  TYR188     -0.0009
     85  CE1      149.6400  -22.5370   77.9910 C.ar  188  TYR188      0.0417
     86  CE2      148.8330  -24.7550   78.4140 C.ar  188  TYR188      0.0417
     87  CZ       149.2140  -23.5050   78.8800 C.ar  188  TYR188      0.1957
     88  OH       149.1470  -23.1990   80.2210 O.3   188  TYR188     -0.2866
     89  N        151.2500  -25.7800   72.1370 N.am  189  VAL189     -0.1966
     90  CA       151.2800  -26.1430   70.7270 C.3   189  VAL189      0.1727
     91  C        150.2890  -27.2470   70.3880 C.2   189  VAL189      0.2616
     92  O        150.4440  -28.3780   70.8180 O.2   189  VAL189     -0.2715
     93  CB       152.6650  -26.6440   70.3350 C.3   189  VAL189      0.0290
     94  CG1      152.7000  -26.9150   68.8590 C.3   189  VAL189      0.0023
     95  CG2      153.7280  -25.6410   70.7670 C.3   189  VAL189      0.0023
     96  N        149.2720  -26.9230   69.6080 N.am  190  GLY190     -0.1955
     97  CA       148.2950  -27.9270   69.2310 C.3   190  GLY190      0.1869
     98  C        148.3800  -28.2170   67.7440 C.2   190  GLY190      0.2309
     99  O        148.8670  -27.3900   66.9650 O.2   190  GLY190     -0.2863
    100  N        145.0890  -29.6670   81.3590 N.3   227  PHE227     -0.1241
    101  CA       145.8830  -28.5450   81.8350 C.3   227  PHE227      0.1605
    102  C        145.1090  -27.6890   82.8210 C.2   227  PHE227      0.2264
    103  O        143.9250  -27.4400   82.6380 O.2   227  PHE227     -0.2867
    104  CB       146.2870  -27.6800   80.6620 C.3   227  PHE227      0.0534
    105  CG       147.0660  -28.4060   79.6250 C.ar  227  PHE227     -0.0203
    106  CD1      148.4230  -28.6340   79.7970 C.ar  227  PHE227     -0.0042
    107  CD2      146.4490  -28.8530   78.4640 C.ar  227  PHE227     -0.0042
    108  CE1      149.1620  -29.2950   78.8250 C.ar  227  PHE227     -0.0003
    109  CE2      147.1760  -29.5140   77.4810 C.ar  227  PHE227     -0.0003
    110  CZ       148.5390  -29.7360   77.6600 C.ar  227  PHE227     -0.0000
    111  N        144.5110  -24.2990   83.7790 N.3   229  TRP229     -0.1241
    112  CA       144.7350  -22.9550   83.2570 C.3   229  TRP229      0.1605
    113  C        143.5890  -22.0090   83.5620 C.2   229  TRP229      0.2264
    114  O        142.4250  -22.3370   83.3260 O.2   229  TRP229     -0.2867
    115  CB       144.9220  -23.0160   81.7330 C.3   229  TRP229      0.0550
    116  CG       144.8950  -21.6670   81.0240 C.ar  229  TRP229      0.0003
    117  CD1      145.9470  -20.8120   80.8410 C.ar  229  TRP229      0.0946
    118  CD2      143.7680  -21.0600   80.3820 C.ar  229  TRP229      0.0152
    119  NE1      145.5410  -19.7120   80.1130 N.ar  229  TRP229     -0.2442
    120  CE2      144.2080  -19.8370   79.8320 C.ar  229  TRP229      0.0810
    121  CE3      142.4330  -21.4310   80.2300 C.ar  229  TRP229      0.0012
    122  CZ2      143.3530  -18.9900   79.1390 C.ar  229  TRP229      0.0191
    123  CZ3      141.5860  -20.5840   79.5360 C.ar  229  TRP229      0.0001
    124  CH2      142.0480  -19.3800   79.0030 C.ar  229  TRP229      0.0015
    125  N        141.4790  -28.2790   81.2100 N.3   234  LEU234     -0.1231
    126  CA       141.5970  -28.4370   79.7710 C.3   234  LEU234      0.1693
    127  C        142.1250  -29.7250   79.1990 C.2   234  LEU234      0.2592
    128  O        143.3360  -29.9310   79.1310 O.2   234  LEU234     -0.2718
    129  CB       142.4140  -27.2920   79.2090 C.3   234  LEU234      0.0284
    130  CG       141.7320  -25.9450   79.4360 C.3   234  LEU234      0.0019
    131  CD1      142.7000  -24.8090   79.1530 C.3   234  LEU234      0.0001
    132  CD2      140.4930  -25.8660   78.5520 C.3   234  LEU234      0.0001
    133  N        141.2020  -30.5780   78.7600 N.am  235  HIS235     -0.1962
    134  CA       141.5410  -31.8590   78.1410 C.3   235  HIS235      0.1772
    135  C        141.7730  -31.5660   76.6510 C.2   235  HIS235      0.2462
    136  O        141.6510  -30.4160   76.2090 O.2   235  HIS235     -0.2730
    137  CB       140.3720  -32.8480   78.2950 C.3   235  HIS235      0.0785
    138  CG       140.0650  -33.2150   79.7160 C.ar  235  HIS235      0.0821
    139  ND1      140.8940  -34.0120   80.4720 N.ar  235  HIS235     -0.2267
    140  CD2      139.0240  -32.8790   80.5170 C.ar  235  HIS235      0.1154
    141  CE1      140.3760  -34.1520   81.6830 C.ar  235  HIS235      0.1986
    142  NE2      139.2450  -33.4760   81.7350 N.ar  235  HIS235     -0.2212
    143  N        142.1400  -32.5830   75.8580 N.am  236  PRO236     -0.2727
    144  CA       142.3450  -32.2850   74.4400 C.3   236  PRO236      0.1402
    145  C        141.0110  -32.4180   73.6690 C.2   236  PRO236      0.2269
    146  O        140.9660  -32.1740   72.4670 O.2   236  PRO236     -0.2865
    147  CB       143.3990  -33.3040   74.0450 C.3   236  PRO236      0.0296
    148  CG       142.9510  -34.5120   74.8250 C.3   236  PRO236      0.0237
    149  CD       142.6510  -33.9220   76.1980 C.3   236  PRO236      0.0939
    150  N        134.0520  -29.0350   72.5020 N.3   318  TYR318     -0.1241
    151  CA       134.6840  -27.9360   71.7750 C.3   318  TYR318      0.1605
    152  C        133.9530  -27.4610   70.5240 C.2   318  TYR318      0.2264
    153  O        132.8960  -27.9860   70.1590 O.2   318  TYR318     -0.2867
    154  CB       136.1170  -28.3090   71.4210 C.3   318  TYR318      0.0534
    155  CG       137.0230  -28.2950   72.6190 C.ar  318  TYR318     -0.0201
    156  CD1      138.1490  -29.1040   72.6770 C.ar  318  TYR318     -0.0009
    157  CD2      136.7610  -27.4630   73.6980 C.ar  318  TYR318     -0.0009
    158  CE1      138.9890  -29.0860   73.7840 C.ar  318  TYR318      0.0417
    159  CE2      137.6010  -27.4340   74.8020 C.ar  318  TYR318      0.0417
    160  CZ       138.7100  -28.2470   74.8360 C.ar  318  TYR318      0.1957
    161  OH       139.5430  -28.2000   75.9210 O.3   318  TYR318     -0.2866
@<TRIPOS>BOND
     1    24    23    1
     2    23    22    1
     3    22    21    1
     4    55    54    1
     5    50    51    1
     6    33    32    1
     7    21    20    1
     8    32    31    1
     9    51    54    1
    10    51    52    1
    11    54    56    1
    12    42    41    1
    13    41    40    1
    14    20    17    1
    15    99    98    2
    16    28    27    2
    17    31    30    1
    18    52    57   am
    19    52    53    2
    20    40    39    1
    21    64    62    1
    22    30    29    1
    23    57    58    1
    24    98    97    1
    25    39    38    1
    26    62    61    1
    27    17    18    1
    28    17    16    1
    29    35    36    1
    30    35    38    1
    31    35    34    1
    32    27    34   am
    33    27    26    1
    34    61    58    1
    35    61    63    1
    36    18    25   am
    37    18    19    2
    38    25    26    1
    39    94    93    1
    40    36    37    2
    41    58    59    1
    42    60    59    2
    43    16    10   am
    44    29    26    1
    45    97    96    1
    46    96    91   am
    47    59    65   am
    48    10    11    2
    49    10     9    1
    50   153   152    2
    51    93    90    1
    52    93    95    1
    53    91    90    1
    54    91    92    2
    55   152   151    1
    56    90    89    1
    57     9     8    1
    58     9    12    1
    59    65    66    1
    60   154   151    1
    61   154   155    1
    62    43    44    1
    63    49    47    1
    64    66    69    1
    65    66    67    1
    66   151   150    1
    67    80    79    2
    68    12    13    1
    69    89    79   am
    70    44    47    1
    71    44    45    1
    72    15    13    1
    73    69    70    1
    74   146   145    2
    75    79    78    1
    76   155   156   ar
    77   155   157   ar
    78   156   158   ar
    79    47    48    1
    80    67    68    2
    81    13    14    1
    82    71    70   ar
    83    71    73   ar
    84    45    46    2
    85    70    72   ar
    86   145   144    1
    87   157   159   ar
    88   158   160   ar
    89   147   144    1
    90   147   148    1
    91    78    77    1
    92    78    81    1
    93    73    75   ar
    94     5     6    1
    95     5     2    1
    96   144   143    1
    97    72    74   ar
    98    81    82    1
    99   159   160   ar
   100   148   149    1
   101   160   161    1
   102     6     7    1
   103     2     3    1
   104     2     1    1
   105    75    74   ar
   106    75    76    1
   107   143   149    1
   108   143   135   am
   109     7     1    1
   110     3     4    2
   111    82    83   ar
   112    82    84   ar
   113   136   135    2
   114    83    85   ar
   115   135   134    1
   116    84    86   ar
   117   109   110   ar
   118   109   107   ar
   119   110   108   ar
   120    85    87   ar
   121   134   137    1
   122   134   133    1
   123   137   138    1
   124    86    87   ar
   125   107   105   ar
   126   132   130    1
   127   133   127   am
   128   108   106   ar
   129    87    88    1
   130   124   122   ar
   131   124   123   ar
   132   128   127    2
   133   122   120   ar
   134   131   130    1
   135   127   126    1
   136   129   130    1
   137   129   126    1
   138   123   121   ar
   139   105   106   ar
   140   105   104    1
   141   138   139   ar
   142   138   140   ar
   143   126   125    1
   144   120   119   ar
   145   120   118   ar
   146   119   117   ar
   147   121   118   ar
   148   118   116   ar
   149   139   141   ar
   150   140   142   ar
   151   104   101    1
   152   117   116   ar
   153   116   115    1
   154   100   101    1
   155   141   142   ar
   156   115   112    1
   157   101   102    1
   158   103   102    2
   159   112   113    1
   160   112   111    1
   161   114   113    2
