@<TRIPOS>MOLECULE
tmp/2baqA00.pdb
 172 161 0 0 0
SMALL
GASTEIGER

@<TRIPOS>ATOM
      1  N         -8.4860    2.1010   28.0240 N.3    26  ILE26      -0.1245
      2  CA        -7.1490    1.7720   28.5380 C.3    26  ILE26       0.1561
      3  C         -5.9810    2.7020   28.1740 C.2    26  ILE26       0.2260
      4  O         -4.8610    2.4660   28.6060 O.2    26  ILE26      -0.2867
      5  CB        -6.7530    0.3230   28.1900 C.3    26  ILE26       0.0252
      6  CG1       -6.4880    0.1880   26.6970 C.3    26  ILE26       0.0019
      7  CG2       -7.7950   -0.6960   28.7490 C.3    26  ILE26       0.0019
      8  CD1       -5.2080   -0.4690   26.4550 C.3    26  ILE26       0.0001
      9  N         -7.9890    4.8930   22.9590 N.3    34  VAL34      -0.1245
     10  CA        -8.0830    3.4700   22.6910 C.3    34  VAL34       0.1561
     11  C         -8.8700    2.8010   23.7790 C.2    34  VAL34       0.2260
     12  O         -8.5730    2.9830   24.9770 O.2    34  VAL34      -0.2867
     13  CB        -6.6990    2.8060   22.6620 C.3    34  VAL34       0.0252
     14  CG1       -6.8130    1.2890   22.4330 C.3    34  VAL34       0.0019
     15  CG2       -5.7970    3.4690   21.6150 C.3    34  VAL34       0.0019
     16  N         -9.9590   -1.0860   25.1060 N.3    36  ALA36      -0.1245
     17  CA        -9.9840   -2.5400   25.0040 C.3    36  ALA36       0.1562
     18  C        -11.4360   -2.9770   24.6980 C.2    36  ALA36       0.2260
     19  O        -12.3830   -2.2500   25.0080 O.2    36  ALA36      -0.2867
     20  CB        -9.4870   -3.1530   26.2850 C.3    36  ALA36       0.0290
     21  N         -9.6450  -10.6250   21.9940 N.3    45  ARG45      -0.1245
     22  CA        -9.6450   -9.2980   22.5710 C.3    45  ARG45       0.1563
     23  C         -9.0510   -8.4110   21.4910 C.2    45  ARG45       0.2260
     24  O         -8.1880   -8.8640   20.7480 O.2    45  ARG45      -0.2867
     25  CB        -8.8610   -9.2550   23.8900 C.3    45  ARG45       0.0307
     26  CG        -9.6200   -9.8950   25.0600 C.3    45  ARG45       0.0489
     27  CD        -8.9740   -9.6240   26.4510 C.3    45  ARG45       0.2205
     28  NE        -9.1730   -8.2430   26.9230 N.pl3  45  ARG45      -0.0865
     29  CZ       -10.2640   -7.7860   27.5540 C.cat  45  ARG45       0.5346
     30  NH1      -11.2980   -8.5960   27.8290 N.pl3  45  ARG45       0.1354
     31  NH2      -10.3220   -6.5020   27.9160 N.pl3  45  ARG45       0.1354
     32  N         -8.2650   -3.9350   20.3290 N.3    47  ALA47      -0.1245
     33  CA        -8.1980   -2.5150   20.6890 C.3    47  ALA47       0.1562
     34  C         -9.0320   -1.6710   19.7090 C.2    47  ALA47       0.2260
     35  O         -9.1380   -1.9960   18.5230 O.2    47  ALA47      -0.2867
     36  CB        -6.7650   -2.0470   20.6760 C.3    47  ALA47       0.0290
     37  N         -9.2710    2.3430   18.6100 N.3    49  LYS49      -0.1245
     38  CA        -8.9620    3.7740   18.6900 C.3    49  LYS49       0.1561
     39  C        -10.0850    4.5520   18.0480 C.2    49  LYS49       0.2260
     40  O        -10.3890    4.3580   16.8690 O.2    49  LYS49      -0.2867
     41  CB        -7.6220    4.1290   18.0150 C.3    49  LYS49       0.0271
     42  CG        -7.4490    5.6210   17.7100 C.3    49  LYS49       0.0035
     43  CD        -6.0550    6.1760   18.0270 C.3    49  LYS49       0.0206
     44  CE        -5.1350    6.1790   16.8370 C.3    49  LYS49       0.1093
     45  NZ        -3.8320    6.8720   17.1060 N.3    49  LYS49      -0.1314
     46  N         -3.3860    8.0230    8.7600 N.3    67  GLU67      -0.1245
     47  CA        -3.3980    6.9090    9.6990 C.3    67  GLU67       0.1567
     48  C         -4.0990    5.7060    9.1040 C.2    67  GLU67       0.2260
     49  O         -3.5650    4.6060    9.1210 O.2    67  GLU67      -0.2867
     50  CB        -3.9900    7.2710   11.0620 C.3    67  GLU67       0.0388
     51  CG        -3.6460    6.1840   12.0620 C.3    67  GLU67       0.1160
     52  CD        -3.9540    6.5260   13.5040 C.2    67  GLU67       0.3649
     53  OE1       -4.6230    7.5530   13.8030 O.co2  67  GLU67      -0.2457
     54  OE2       -3.5130    5.7330   14.3560 O.co2  67  GLU67      -0.2457
     55  N         -2.4560    1.9460    8.3020 N.3    71  LEU71      -0.1245
     56  CA        -2.7800    0.7330    9.0220 C.3    71  LEU71       0.1561
     57  C         -3.3320   -0.2830    8.0480 C.2    71  LEU71       0.2260
     58  O         -3.0480   -1.4850    8.1460 O.2    71  LEU71      -0.2867
     59  CB        -3.7230    0.9800   10.1970 C.3    71  LEU71       0.0270
     60  CG        -3.0510    1.8460   11.2630 C.3    71  LEU71       0.0019
     61  CD1       -4.0850    2.5290   12.0320 C.3    71  LEU71       0.0001
     62  CD2       -2.1350    1.0600   12.1700 C.3    71  LEU71       0.0001
     63  N          1.7110   -3.3190   13.8560 N.3    80  ILE80      -0.1245
     64  CA         0.2880   -3.2450   14.1580 C.3    80  ILE80       0.1561
     65  C         -0.5840   -2.9890   12.9270 C.2    80  ILE80       0.2260
     66  O         -0.4020   -2.0100   12.1830 O.2    80  ILE80      -0.2867
     67  CB         0.0110   -2.2330   15.3030 C.3    80  ILE80       0.0252
     68  CG1       -1.3210   -2.5380   15.9460 C.3    80  ILE80       0.0019
     69  CG2        0.0940   -0.7920   14.8220 C.3    80  ILE80       0.0019
     70  CD1       -2.0780   -1.2970   16.2280 C.3    80  ILE80       0.0001
     71  N        -10.7420    2.7140   14.6890 N.3   100  LEU100     -0.1245
     72  CA        -9.7690    1.7640   14.1840 C.3   100  LEU100      0.1561
     73  C         -9.6810    0.5980   15.1710 C.2   100  LEU100      0.2260
     74  O         -9.5620    0.8130   16.3760 O.2   100  LEU100     -0.2867
     75  CB        -8.4170    2.4550   14.0250 C.3   100  LEU100      0.0270
     76  CG        -8.3140    3.6910   13.1280 C.3   100  LEU100      0.0019
     77  CD1       -6.9410    4.3490   13.2580 C.3   100  LEU100      0.0001
     78  CD2       -8.6070    3.3620   11.6700 C.3   100  LEU100      0.0001
     79  N         -7.8440   -3.0960   16.1710 N.3   102  THR102     -0.1203
     80  CA        -6.6130   -3.9040   15.9680 C.3   102  THR102      0.1994
     81  C         -6.5020   -4.8760   17.1110 C.2   102  THR102      0.2618
     82  O         -7.4400   -5.0070   17.8680 O.2   102  THR102     -0.2717
     83  CB        -5.3030   -3.0650   15.8990 C.3   102  THR102      0.1784
     84  OG1       -4.8980   -2.6780   17.2140 O.3   102  THR102     -0.2211
     85  CG2       -5.4400   -1.8260   15.0000 C.3   102  THR102      0.0376
     86  N         -5.3670   -5.5530   17.2560 N.am  103  HIS103     -0.1961
     87  CA        -5.2470   -6.5580   18.3250 C.3   103  HIS103      0.1787
     88  C         -5.0190   -5.9260   19.6570 C.2   103  HIS103      0.2620
     89  O         -4.4500   -4.8460   19.7350 O.2   103  HIS103     -0.2715
     90  CB        -4.1340   -7.5650   18.0600 C.3   103  HIS103      0.0785
     91  CG        -4.4630   -8.5350   16.9800 C.ar  103  HIS103      0.0821
     92  ND1       -3.5140   -9.0490   16.1310 N.ar  103  HIS103     -0.2267
     93  CD2       -5.6410   -9.0710   16.5960 C.ar  103  HIS103      0.1154
     94  CE1       -4.0920   -9.8590   15.2630 C.ar  103  HIS103      0.1986
     95  NE2       -5.3850   -9.8870   15.5230 N.ar  103  HIS103     -0.2212
     96  N         -5.4880   -6.5720   20.7170 N.am  104  LEU104     -0.1963
     97  CA        -5.1620   -6.0490   22.0270 C.3   104  LEU104      0.1728
     98  C         -3.7980   -6.6070   22.3450 C.2   104  LEU104      0.2616
     99  O         -3.5730   -7.7910   22.1440 O.2   104  LEU104     -0.2715
    100  CB        -6.1850   -6.4170   23.0840 C.3   104  LEU104      0.0311
    101  CG        -5.9410   -5.5600   24.3280 C.3   104  LEU104      0.0022
    102  CD1       -6.0270   -4.0720   24.0420 C.3   104  LEU104      0.0001
    103  CD2       -6.9120   -5.9270   25.3890 C.3   104  LEU104      0.0001
    104  N         -2.8800   -5.7540   22.7980 N.am  105  MET105     -0.1963
    105  CA        -1.5260   -6.2100   23.0100 C.3   105  MET105      0.1736
    106  C         -1.2490   -6.6740   24.4240 C.2   105  MET105      0.2617
    107  O         -1.0020   -7.8520   24.6250 O.2   105  MET105     -0.2715
    108  CB        -0.4860   -5.1960   22.5350 C.3   105  MET105      0.0427
    109  CG        -0.1600   -5.2930   21.0650 C.3   105  MET105      0.0599
    110  SD         0.0450   -6.9830   20.4630 S.3   105  MET105     -0.1393
    111  CE         1.7980   -7.3170   20.6470 C.3   105  MET105      0.0692
    112  N         -1.2670   -5.7860   25.4060 N.am  106  GLY106     -0.1940
    113  CA        -0.6200   -6.1620   26.6610 C.3   106  GLY106      0.2014
    114  C          0.1370   -5.0730   27.3980 C.2   106  GLY106      0.2639
    115  O         -0.2900   -4.7080   28.4990 O.2   106  GLY106     -0.2714
    116  N          1.2450   -4.5640   26.8220 N.am  107  ALA107     -0.1963
    117  CA         2.0770   -3.4910   27.4540 C.3   107  ALA107      0.1728
    118  C          3.0660   -2.7560   26.5260 C.2   107  ALA107      0.2616
    119  O          2.8940   -2.7670   25.3190 O.2   107  ALA107     -0.2715
    120  CB         2.8070   -4.0250   28.6640 C.3   107  ALA107      0.0334
    121  N          4.0960   -2.1230   27.1060 N.am  108  ASP108     -0.1971
    122  CA         5.0300   -1.2150   26.3930 C.3   108  ASP108      0.1709
    123  C          6.5040   -1.5720   26.5680 C.2   108  ASP108      0.2293
    124  O          6.8510   -2.6960   26.9440 O.2   108  ASP108     -0.2864
    125  CB         4.9040    0.2040   26.9370 C.3   108  ASP108      0.1436
    126  CG         3.5510    0.7920   26.7240 C.2   108  ASP108      0.3671
    127  OD1        2.7360    0.2050   25.9910 O.co2 108  ASP108     -0.2456
    128  OD2        3.3000    1.8670   27.2950 O.co2 108  ASP108     -0.2456
    129  N          4.6750   -2.4940   21.6340 N.3   145  ALA145     -0.1245
    130  CA         3.6710   -3.1540   22.4290 C.3   145  ALA145      0.1562
    131  C          4.0130   -4.6130   22.4080 C.2   145  ALA145      0.2260
    132  O          4.1450   -5.2140   21.3470 O.2   145  ALA145     -0.2867
    133  CB         2.2870   -2.9070   21.8500 C.3   145  ALA145      0.0290
    134  N          3.6680    0.0520   17.1120 N.3   154  LEU154     -0.1231
    135  CA         2.4540    0.8280   17.0130 C.3   154  LEU154      0.1693
    136  C          2.7370    2.0410   16.1540 C.2   154  LEU154      0.2592
    137  O          3.8160    2.6110   16.2270 O.2   154  LEU154     -0.2718
    138  CB         1.9660    1.2550   18.3910 C.3   154  LEU154      0.0284
    139  CG         1.7920    0.2070   19.4930 C.3   154  LEU154      0.0019
    140  CD1        1.3960    0.8870   20.8320 C.3   154  LEU154      0.0001
    141  CD2        0.7890   -0.8780   19.1260 C.3   154  LEU154      0.0001
    142  N          1.7760    2.4310   15.3300 N.am  155  ASP155     -0.1960
    143  CA         1.8480    3.7490   14.6950 C.3   155  ASP155      0.1840
    144  C          2.0990    4.8600   15.7480 C.2   155  ASP155      0.2622
    145  O          2.9960    5.6890   15.5760 O.2   155  ASP155     -0.2715
    146  CB         0.5910    4.0360   13.8560 C.3   155  ASP155      0.1450
    147  CG        -0.7190    3.9310   14.6660 C.2   155  ASP155      0.3671
    148  OD1       -1.7430    4.4510   14.1720 O.co2 155  ASP155     -0.2456
    149  OD2       -0.7400    3.3320   15.7760 O.co2 155  ASP155     -0.2456
    150  N          1.3300    4.8390   16.8410 N.am  156  PHE156     -0.1960
    151  CA         1.3800    5.8750   17.8810 C.3   156  PHE156      0.1771
    152  C          1.2550    5.2070   19.2280 C.2   156  PHE156      0.2620
    153  O          0.6520    4.1440   19.3330 O.2   156  PHE156     -0.2715
    154  CB         0.2260    6.8720   17.7230 C.3   156  PHE156      0.0574
    155  CG         0.2840    7.6770   16.4560 C.ar  156  PHE156     -0.0200
    156  CD1        1.1530    8.7640   16.3410 C.ar  156  PHE156     -0.0042
    157  CD2       -0.5300    7.3440   15.3630 C.ar  156  PHE156     -0.0042
    158  CE1        1.2110    9.5050   15.1620 C.ar  156  PHE156     -0.0003
    159  CE2       -0.4780    8.0870   14.1680 C.ar  156  PHE156     -0.0003
    160  CZ         0.3890    9.1660   14.0710 C.ar  156  PHE156     -0.0000
    161  N          1.7930    5.8320   20.2640 N.am  157  GLY157     -0.1940
    162  CA         1.7660    5.2330   21.5850 C.3   157  GLY157      0.2014
    163  C          0.4860    5.4950   22.3590 C.2   157  GLY157      0.2638
    164  O         -0.6280    5.4930   21.7950 O.2   157  GLY157     -0.2714
    165  N          0.6670    5.7120   23.6620 N.am  158  LEU158     -0.1977
    166  CA        -0.3950    6.0480   24.6060 C.3   158  LEU158      0.1596
    167  C          0.1100    7.0420   25.6670 C.2   158  LEU158      0.2287
    168  O          1.3130    7.2130   25.8560 O.2   158  LEU158     -0.2864
    169  CB        -0.8970    4.7610   25.2780 C.3   158  LEU158      0.0297
    170  CG        -2.3170    4.2210   25.0150 C.3   158  LEU158      0.0022
    171  CD1       -3.0750    4.8570   23.8030 C.3   158  LEU158      0.0001
    172  CD2       -2.3100    2.6830   24.9470 C.3   158  LEU158      0.0001
@<TRIPOS>BOND
     1    57    58    2
     2    57    56    1
     3    55    56    1
     4    46    47    1
     5    56    59    1
     6    48    49    2
     7    48    47    1
     8    47    50    1
     9    59    60    1
    10    50    51    1
    11    60    61    1
    12    60    62    1
    13    78    76    1
    14    51    52    1
    15    66    65    2
    16    65    64    1
    17    76    77    1
    18    76    75    1
    19    52    53   ar
    20    52    54   ar
    21    63    64    1
    22   146   147    1
    23   146   143    1
    24    75    72    1
    25   160   159   ar
    26   160   158   ar
    27    64    67    1
    28   159   157   ar
    29   148   147   ar
    30    72    71    1
    31    72    73    1
    32   147   149   ar
    33   143   142    1
    34   143   144    1
    35    69    67    1
    36    85    83    1
    37   158   156   ar
    38    73    74    2
    39    94    95   ar
    40    94    92   ar
    41    67    68    1
    42   142   136   am
    43   157   155   ar
    44    95    93   ar
    45   145   144    2
    46   144   150   am
    47    83    80    1
    48    83    84    1
    49    68    70    1
    50    80    79    1
    51    80    81    1
    52    92    91   ar
    53   136   137    2
    54   136   135    1
    55   156   155   ar
    56   155   154    1
    57    93    91   ar
    58    44    45    1
    59    44    43    1
    60   150   151    1
    61    40    39    2
    62    91    90    1
    63   135   134    1
    64   135   138    1
    65    81    86   am
    66    81    82    2
    67    86    87    1
    68    42    41    1
    69    42    43    1
    70   154   151    1
    71   151   152    1
    72    41    38    1
    73    39    38    1
    74    90    87    1
    75    87    88    1
    76   138   139    1
    77    35    34    2
    78    37    38    1
    79   141   139    1
    80   152   153    2
    81   152   161   am
    82   139   140    1
    83    88    89    2
    84    88    96   am
    85    34    33    1
    86   161   162    1
    87    32    33    1
    88   110   111    1
    89   110   109    1
    90    36    33    1
    91    96    97    1
    92    24    23    2
    93   109   108    1
    94   132   131    2
    95    23    22    1
    96   162   163    1
    97    15    13    1
    98   129   130    1
    99   164   163    2
   100   133   130    1
   101    21    22    1
   102    97    98    1
   103    97   100    1
   104    99    98    2
   105    98   104   am
   106   163   165   am
   107   131   130    1
   108    14    13    1
   109   108   105    1
   110    22    25    1
   111    13    10    1
   112    10     9    1
   113    10    11    1
   114   104   105    1
   115   105   106    1
   116   100   101    1
   117   165   166    1
   118    11    12    2
   119   171   170    1
   120    25    26    1
   121   102   101    1
   122   101   103    1
   123   106   107    2
   124   106   112   am
   125   166   169    1
   126   166   167    1
   127    18    17    1
   128    18    19    2
   129   172   170    1
   130    17    16    1
   131    17    20    1
   132   170   169    1
   133    26    27    1
   134   119   118    2
   135   112   113    1
   136   167   168    2
   137   127   126   ar
   138   122   123    1
   139   122   125    1
   140   122   121    1
   141    27    28    1
   142     8     6    1
   143   118   121   am
   144   118   117    1
   145   123   124    2
   146   113   114    1
   147     6     5    1
   148   126   125    1
   149   126   128   ar
   150   116   114   am
   151   116   117    1
   152    28    29    2
   153   114   115    2
   154   117   120    1
   155    29    30    1
   156    29    31    1
   157     1     2    1
   158     3     2    1
   159     3     4    2
   160     5     2    1
   161     5     7    1
