@<TRIPOS>MOLECULE
tmp/2baxA03.pdb
 89 89 0 0 0
SMALL
GASTEIGER

@<TRIPOS>ATOM
      1  N         16.8990   27.2030   25.6620 N.3    24  ASN24      -0.1225
      2  CA        16.9530   27.3920   24.2440 C.3    24  ASN24       0.1785
      3  C         16.6590   26.0930   23.5300 C.2    24  ASN24       0.2597
      4  O         17.4640   25.5380   22.7460 O.2    24  ASN24      -0.2718
      5  CB        18.3170   28.0220   23.8950 C.3    24  ASN24       0.1169
      6  CG        18.3910   29.4370   24.4620 C.2    24  ASN24       0.2627
      7  OD1       17.3770   30.0460   24.7970 O.2    24  ASN24      -0.2716
      8  ND2       19.6200   29.9240   24.6010 N.am   24  ASN24      -0.0877
      9  N         15.4050   25.6410   23.7700 N.am   25  TYR25      -0.1962
     10  CA        14.8290   24.5210   23.1290 C.3    25  TYR25       0.1771
     11  C         13.4610   24.9860   22.6120 C.2    25  TYR25       0.2620
     12  O         12.6610   25.5430   23.3420 O.2    25  TYR25      -0.2715
     13  CB        14.6950   23.2960   24.0320 C.3    25  TYR25       0.0574
     14  CG        14.1390   22.0490   23.4230 C.ar   25  TYR25      -0.0198
     15  CD1       12.7470   21.8990   23.1570 C.ar   25  TYR25      -0.0009
     16  CD2       14.9310   20.9620   23.0620 C.ar   25  TYR25      -0.0009
     17  CE1       12.2290   20.7930   22.6010 C.ar   25  TYR25       0.0417
     18  CE2       14.4000   19.8280   22.5250 C.ar   25  TYR25       0.0417
     19  CZ        13.0470   19.7230   22.2590 C.ar   25  TYR25       0.1957
     20  OH        12.5630   18.5780   21.7590 O.3    25  TYR25      -0.2866
     21  N         13.1780   24.6610   21.3550 N.am   26  GLY26      -0.1940
     22  CA        11.8890   25.0010   20.7900 C.3    26  GLY26       0.2014
     23  C         11.6350   26.4820   20.7390 C.2    26  GLY26       0.2639
     24  O         12.5380   27.3040   20.7670 O.2    26  GLY26      -0.2714
     25  N         10.3420   26.8230   20.7050 N.am   27  CYS27      -0.1953
     26  CA         9.8930   28.2020   20.7450 C.3    27  CYS27       0.1843
     27  C          9.6620   28.7480   22.1230 C.2    27  CYS27       0.2625
     28  O          9.6220   29.9680   22.3050 O.2    27  CYS27      -0.2714
     29  CB         8.5800   28.3160   19.9360 C.3    27  CYS27       0.0997
     30  SG         8.7880   28.0560   18.1820 S.3    27  CYS27      -0.0797
     31  N          9.5470   27.8700   23.1530 N.am   28  TYR28      -0.1960
     32  CA         9.1620   28.2890   24.4630 C.3    28  TYR28       0.1771
     33  C         10.1440   27.9890   25.5780 C.2    28  TYR28       0.2620
     34  O         10.0350   28.6290   26.6390 O.2    28  TYR28      -0.2715
     35  CB         7.8000   27.6500   24.8990 C.3    28  TYR28       0.0574
     36  CG         6.6520   28.2950   24.1430 C.ar   28  TYR28      -0.0198
     37  CD1        5.9900   29.3790   24.7020 C.ar   28  TYR28      -0.0009
     38  CD2        6.2400   27.8760   22.9080 C.ar   28  TYR28      -0.0009
     39  CE1        4.9260   30.0150   24.0220 C.ar   28  TYR28       0.0417
     40  CE2        5.2130   28.4930   22.2050 C.ar   28  TYR28       0.0417
     41  CZ         4.5770   29.5570   22.7690 C.ar   28  TYR28       0.1957
     42  OH         3.5200   30.2130   22.1450 O.3    28  TYR28      -0.2866
     43  N         11.0500   27.0450   25.4250 N.am   29  CYS29      -0.1954
     44  CA        11.9330   26.6930   26.5720 C.3    29  CYS29       0.1843
     45  C         13.1030   27.6690   26.5650 C.2    29  CYS29       0.2626
     46  O         14.0000   27.6070   25.7290 O.2    29  CYS29      -0.2714
     47  CB        12.4880   25.2810   26.4620 C.3    29  CYS29       0.0997
     48  SG        11.2160   23.9750   26.3240 S.3    29  CYS29      -0.0797
     49  N         13.0720   28.5290   27.5410 N.am   30  GLY30      -0.1940
     50  CA        13.9740   29.6690   27.6510 C.3    30  GLY30       0.2014
     51  C         13.2660   30.9810   27.7300 C.2    30  GLY30       0.2639
     52  O         12.0180   31.0540   27.8050 O.2    30  GLY30      -0.2714
     53  N         13.9920   32.0880   27.7620 N.am   31  LEU31      -0.1963
     54  CA        13.3440   33.3880   27.9900 C.3    31  LEU31       0.1728
     55  C         12.4290   33.7150   26.8240 C.2    31  LEU31       0.2617
     56  O         12.8290   33.5920   25.6560 O.2    31  LEU31      -0.2715
     57  CB        14.4180   34.4440   28.2340 C.3    31  LEU31       0.0311
     58  CG        14.6570   34.8350   29.6940 C.3    31  LEU31       0.0022
     59  CD1       14.7380   33.5900   30.5640 C.3    31  LEU31       0.0001
     60  CD2       15.9150   35.6730   29.8590 C.3    31  LEU31       0.0001
     61  N         11.1980   34.0680   27.1700 N.am   32  GLY32      -0.1940
     62  CA        10.1110   34.3600   26.2540 C.3    32  GLY32       0.2014
     63  C          9.4700   33.1240   25.6450 C.2    32  GLY32       0.2639
     64  O          9.5760   32.0340   26.1860 O.2    32  GLY32      -0.2714
     65  N          8.8050   33.3160   24.5190 N.am   33  GLY33      -0.1939
     66  CA         8.0310   32.2600   23.8930 C.3    33  GLY33       0.2014
     67  C          7.0920   32.9120   22.8750 C.2    33  GLY33       0.2639
     68  O          6.7260   34.0600   23.0910 O.2    33  GLY33      -0.2714
     69  N          6.7910   32.1610   21.8340 N.am   34  SER34      -0.1949
     70  CA         6.0020   32.7440   20.7500 C.3    34  SER34       0.1924
     71  C          5.6810   31.6990   19.7020 C.2    34  SER34       0.2314
     72  O          6.5490   30.8870   19.3920 O.2    34  SER34      -0.2863
     73  CB         6.8030   33.8960   20.1410 C.3    34  SER34       0.2116
     74  OG         7.8160   33.4150   19.2660 O.3    34  SER34      -0.2180
     75  N         14.5940   30.7330   15.1990 N.3   120  LYS120     -0.1245
     76  CA        13.3810   31.3990   15.6610 C.3   120  LYS120      0.1561
     77  C         12.4490   31.7890   14.5270 C.2   120  LYS120      0.2260
     78  O         11.3200   32.2120   14.7910 O.2   120  LYS120     -0.2867
     79  CB        13.7160   32.6460   16.4950 C.3   120  LYS120      0.0271
     80  CG        12.5270   33.1780   17.2940 C.3   120  LYS120      0.0035
     81  CD        12.5590   34.6940   17.4090 C.3   120  LYS120      0.0206
     82  CE        12.6500   35.1170   18.8710 C.3   120  LYS120      0.1093
     83  NZ        13.2570   36.4690   19.0390 N.3   120  LYS120     -0.1314
     84  N          9.1310   30.4590   15.0070 N.3   123  CYS123     -0.1235
     85  CA         8.2410   30.8150   16.1130 C.3   123  CYS123      0.1677
     86  C          7.3780   32.0520   15.8830 C.2   123  CYS123      0.2270
     87  O          7.7280   33.1290   16.3940 O.2   123  CYS123     -0.2867
     88  CB         9.0770   31.0070   17.3830 C.3   123  CYS123      0.0956
     89  SG        10.0950   29.5320   17.6390 S.3   123  CYS123     -0.0801
@<TRIPOS>BOND
     1    77    78    2
     2    77    76    1
     3    84    85    1
     4    75    76    1
     5    76    79    1
     6    86    85    1
     7    86    87    2
     8    85    88    1
     9    79    80    1
    10    80    81    1
    11    88    89    1
    12    81    82    1
    13    89    30    1
    14    30    29    1
    15    82    83    1
    16    74    73    1
    17    72    71    2
    18    71    70    1
    19    29    26    1
    20    73    70    1
    21    25    23   am
    22    25    26    1
    23    23    24    2
    24    23    22    1
    25    26    27    1
    26    70    69    1
    27    22    21    1
    28    21    11   am
    29    20    19    1
    30    69    67   am
    31    27    28    2
    32    27    31   am
    33    42    41    1
    34    40    41   ar
    35    40    38   ar
    36    19    18   ar
    37    19    17   ar
    38    18    16   ar
    39    17    15   ar
    40    11    10    1
    41    11    12    2
    42     4     3    2
    43    41    39   ar
    44    67    68    2
    45    67    66    1
    46    38    36   ar
    47    16    14   ar
    48    10     9    1
    49    10    13    1
    50    31    32    1
    51    15    14   ar
    52    14    13    1
    53     3     9   am
    54     3     2    1
    55    66    65    1
    56     5     2    1
    57     5     6    1
    58    39    37   ar
    59    36    37   ar
    60    36    35    1
    61     2     1    1
    62     6     8   am
    63     6     7    2
    64    32    35    1
    65    32    33    1
    66    65    63   am
    67    43    33   am
    68    43    44    1
    69    33    34    2
    70    63    64    2
    71    63    62    1
    72    56    55    2
    73    46    45    2
    74    62    61    1
    75    48    47    1
    76    47    44    1
    77    45    44    1
    78    45    49   am
    79    55    61   am
    80    55    54    1
    81    49    50    1
    82    50    51    1
    83    51    53   am
    84    51    52    2
    85    53    54    1
    86    54    57    1
    87    57    58    1
    88    58    60    1
    89    58    59    1
