@<TRIPOS>MOLECULE
tmp/2bb3A00.pdb
 159 150 0 0 0
SMALL
GASTEIGER

@<TRIPOS>ATOM
      1  N          5.6320   14.3570   34.5470 N.3    11  THR11      -0.1218
      2  CA         6.0310   14.9490   35.8190 C.3    11  THR11       0.1862
      3  C          5.9520   13.9520   36.9590 C.2    11  THR11       0.2287
      4  O          6.8520   13.8800   37.7920 O.2    11  THR11      -0.2866
      5  CB         5.1300   16.1520   36.1540 C.3    11  THR11       0.1770
      6  OG1        5.1980   17.1030   35.0810 O.3    11  THR11      -0.2211
      7  CG2        5.5790   16.8170   37.4510 C.3    11  THR11       0.0375
      8  N         16.9960   12.8640   35.8170 N.3    35  ARG35      -0.1245
      9  CA        15.5810   12.8950   36.1870 C.3    35  ARG35       0.1563
     10  C         14.6760   12.4860   35.0300 C.2    35  ARG35       0.2260
     11  O         13.7640   11.6800   35.2040 O.2    35  ARG35      -0.2867
     12  CB        15.1740   14.2930   36.6610 C.3    35  ARG35       0.0307
     13  CG        15.3870   14.5550   38.1490 C.3    35  ARG35       0.0489
     14  CD        14.7060   15.8640   38.5870 C.3    35  ARG35       0.2205
     15  NE        13.2750   15.8710   38.2770 N.pl3  35  ARG35      -0.0865
     16  CZ        12.3820   15.0510   38.8280 C.cat  35  ARG35       0.5346
     17  NH1       12.7580   14.1470   39.7280 N.pl3  35  ARG35       0.1354
     18  NH2       11.1050   15.1310   38.4760 N.pl3  35  ARG35       0.1354
     19  N         12.9150   14.8780   27.6520 N.3    74  SER74      -0.1202
     20  CA        12.9480   16.1200   28.4110 C.3    74  SER74       0.2020
     21  C         12.0630   15.8940   29.6190 C.2    74  SER74       0.2619
     22  O         11.1200   15.1060   29.5410 O.2    74  SER74      -0.2717
     23  CB        12.3610   17.2550   27.5560 C.3    74  SER74       0.2103
     24  OG        12.1960   18.4310   28.3100 O.3    74  SER74      -0.2182
     25  N         12.3560   16.5460   30.7400 N.am   75  THR75      -0.1938
     26  CA        11.4780   16.3810   31.8980 C.3    75  THR75       0.2028
     27  C         10.1520   17.0380   31.5670 C.2    75  THR75       0.2643
     28  O         10.1030   18.0020   30.7960 O.2    75  THR75      -0.2714
     29  CB        12.0030   17.0630   33.1580 C.3    75  THR75       0.1808
     30  OG1       12.4010   18.3960   32.8350 O.3    75  THR75      -0.2208
     31  CG2       13.1560   16.2840   33.7570 C.3    75  THR75       0.0379
     32  N          9.0870   16.5080   32.1510 N.am   76  GLY76      -0.1939
     33  CA         7.7580   17.0230   31.9030 C.3    76  GLY76       0.2014
     34  C          7.3880   17.1040   30.4320 C.2    76  GLY76       0.2638
     35  O          7.4220   16.1120   29.7070 O.2    76  GLY76      -0.2714
     36  N          7.0400   18.3120   30.0020 N.am   77  ASP77      -0.1971
     37  CA         6.6160   18.6010   28.6310 C.3    77  ASP77       0.1709
     38  C          7.7920   19.3290   27.9790 C.2    77  ASP77       0.2293
     39  O          8.3310   20.2850   28.5580 O.2    77  ASP77      -0.2864
     40  CB         5.3810   19.4990   28.7060 C.3    77  ASP77       0.1436
     41  CG         4.6720   19.6560   27.3850 C.2    77  ASP77       0.3671
     42  OD1        5.0090   18.9630   26.4140 O.co2  77  ASP77      -0.2456
     43  OD2        3.7460   20.4830   27.3250 O.co2  77  ASP77      -0.2456
     44  N          7.7950   23.4070   27.3350 N.3    79  VAL79      -0.1231
     45  CA         7.5440   24.2480   28.5000 C.3    79  VAL79       0.1692
     46  C          8.9330   24.4860   29.0980 C.2    79  VAL79       0.2592
     47  O          9.5250   23.5740   29.6830 O.2    79  VAL79      -0.2718
     48  CB         6.6700   23.5670   29.6010 C.3    79  VAL79       0.0266
     49  CG1        6.6420   24.4540   30.8320 C.3    79  VAL79       0.0020
     50  CG2        5.2520   23.3090   29.0920 C.3    79  VAL79       0.0020
     51  N          9.4520   25.6990   28.9280 N.am   80  ALA80      -0.1966
     52  CA        10.7720   26.0500   29.4380 C.3    80  ALA80       0.1728
     53  C         11.7290   24.9810   28.9630 C.2    80  ALA80       0.2616
     54  O         12.6080   24.5380   29.7080 O.2    80  ALA80      -0.2715
     55  CB        10.7620   26.0950   30.9470 C.3    80  ALA80       0.0334
     56  N         11.5380   24.5470   27.7250 N.am   81  GLY81      -0.1955
     57  CA        12.3810   23.4880   27.2050 C.3    81  GLY81       0.1869
     58  C         13.5040   23.9240   26.2840 C.2    81  GLY81       0.2309
     59  O         14.1260   24.9750   26.4680 O.2    81  GLY81      -0.2863
     60  N          3.2470   18.4630   31.9910 N.3   102  SER102     -0.1202
     61  CA         4.1940   19.3750   32.6170 C.3   102  SER102      0.2020
     62  C          3.8770   19.7130   34.0570 C.2   102  SER102      0.2619
     63  O          2.7630   19.4950   34.5280 O.2   102  SER102     -0.2717
     64  CB         4.2840   20.6790   31.8150 C.3   102  SER102      0.2103
     65  OG         3.0660   21.3850   31.8680 O.3   102  SER102     -0.2182
     66  N          4.8680   20.2650   34.7490 N.am  103  SER103     -0.1951
     67  CA         4.6870   20.6410   36.1390 C.3   103  SER103      0.1924
     68  C          3.6610   21.7680   36.1410 C.2   103  SER103      0.2314
     69  O          2.9530   21.9950   37.1350 O.2   103  SER103     -0.2863
     70  CB         6.0180   21.0960   36.7530 C.3   103  SER103      0.2116
     71  OG         6.6020   22.1520   36.0130 O.3   103  SER103     -0.2180
     72  N          9.0700   31.7960   32.4600 N.3   122  ASP122     -0.1239
     73  CA        10.2430   30.9600   32.6710 C.3   122  ASP122      0.1674
     74  C         11.2160   31.7140   33.5710 C.2   122  ASP122      0.2266
     75  O         12.0000   32.5310   33.0990 O.2   122  ASP122     -0.2867
     76  CB        10.9000   30.5940   31.3370 C.3   122  ASP122      0.1410
     77  CG        12.0520   29.6190   31.5080 C.2   122  ASP122      0.3668
     78  OD1       12.4280   29.3640   32.6660 O.co2 122  ASP122     -0.2456
     79  OD2       12.5850   29.1180   30.4980 O.co2 122  ASP122     -0.2456
     80  N          7.8610   29.4230   36.5860 N.3   140  LEU140     -0.1231
     81  CA         8.6620   28.2280   36.8050 C.3   140  LEU140      0.1693
     82  C          9.9440   28.7660   37.4220 C.2   140  LEU140      0.2592
     83  O         10.7450   29.4020   36.7370 O.2   140  LEU140     -0.2718
     84  CB         8.9410   27.4970   35.4890 C.3   140  LEU140      0.0284
     85  CG         7.6900   27.0290   34.7310 C.3   140  LEU140      0.0019
     86  CD1        8.0050   25.7960   33.9480 C.3   140  LEU140      0.0001
     87  CD2        6.5810   26.7090   35.6920 C.3   140  LEU140      0.0001
     88  N         10.1340   28.5340   38.7170 N.am  141  ALA141     -0.1966
     89  CA        11.3120   29.0620   39.3730 C.3   141  ALA141      0.1728
     90  C         12.1940   28.0170   40.0260 C.2   141  ALA141      0.2616
     91  O         11.8370   26.8480   40.1460 O.2   141  ALA141     -0.2715
     92  CB        10.8820   30.0940   40.4290 C.3   141  ALA141      0.0334
     93  N         13.3830   28.4520   40.4120 N.am  142  ASP142     -0.1971
     94  CA        14.2980   27.5840   41.1240 C.3   142  ASP142      0.1709
     95  C         14.5910   28.3890   42.3750 C.2   142  ASP142      0.2293
     96  O         14.0780   29.4890   42.4930 O.2   142  ASP142     -0.2864
     97  CB        15.5660   27.2680   40.3180 C.3   142  ASP142      0.1436
     98  CG        16.3630   28.4910   39.9570 C.2   142  ASP142      0.3671
     99  OD1       16.2050   29.5400   40.6140 O.co2 142  ASP142     -0.2456
    100  OD2       17.1800   28.3860   39.0160 O.co2 142  ASP142     -0.2456
    101  N          4.3820   25.9850   44.8400 N.3   158  LEU158     -0.1245
    102  CA         4.1050   24.5650   44.6600 C.3   158  LEU158      0.1561
    103  C          5.4810   23.9360   44.4350 C.2   158  LEU158      0.2260
    104  O          6.0980   24.0980   43.3920 O.2   158  LEU158     -0.2867
    105  CB         3.1270   24.3320   43.4960 C.3   158  LEU158      0.0270
    106  CG         1.8220   25.0990   43.7620 C.3   158  LEU158      0.0019
    107  CD1        1.8320   26.3910   42.9620 C.3   158  LEU158      0.0001
    108  CD2        0.6010   24.2650   43.4160 C.3   158  LEU158      0.0001
    109  N          8.2230   20.7060   44.4470 N.3   160  ASN160     -0.1225
    110  CA         8.4340   19.2860   44.2150 C.3   160  ASN160      0.1785
    111  C          7.1430   18.5180   43.9440 C.2   160  ASN160      0.2597
    112  O          6.9050   17.4690   44.5420 O.2   160  ASN160     -0.2718
    113  CB         9.1490   18.7100   45.4410 C.3   160  ASN160      0.1169
    114  CG        10.2260   19.6470   45.9700 C.2   160  ASN160      0.2627
    115  OD1       11.0330   20.1810   45.2030 O.2   160  ASN160     -0.2716
    116  ND2       10.2440   19.8500   47.2830 N.am  160  ASN160     -0.0877
    117  N          6.3110   19.0340   43.0440 N.am  161  LEU161     -0.1980
    118  CA         5.0630   18.3680   42.7190 C.3   161  LEU161      0.1596
    119  C          5.3330   16.9170   42.3380 C.2   161  LEU161      0.2287
    120  O          6.2190   16.6200   41.5300 O.2   161  LEU161     -0.2864
    121  CB         4.3530   19.0990   41.5770 C.3   161  LEU161      0.0297
    122  CG         3.8870   20.4970   41.9830 C.3   161  LEU161      0.0022
    123  CD1        3.2550   21.2290   40.8000 C.3   161  LEU161      0.0001
    124  CD2        2.8710   20.3870   43.1280 C.3   161  LEU161      0.0001
    125  N         14.5500   23.9270   44.0470 N.3   180  ASP180     -0.1225
    126  CA        14.7730   24.3340   42.6640 C.3   180  ASP180      0.1805
    127  C         13.6160   23.9110   41.7610 C.2   180  ASP180      0.2598
    128  O         13.5870   24.2450   40.5820 O.2   180  ASP180     -0.2718
    129  CB        16.0860   23.7740   42.1380 C.3   180  ASP180      0.1424
    130  CG        17.2850   24.5040   42.7140 C.2   180  ASP180      0.3668
    131  OD1       17.1560   25.7310   42.9700 O.co2 180  ASP180     -0.2456
    132  OD2       18.3400   23.8610   42.9070 O.co2 180  ASP180     -0.2456
    133  N         12.6700   23.1710   42.3270 N.am  181  TYR181     -0.1962
    134  CA        11.4860   22.7520   41.5870 C.3   181  TYR181      0.1771
    135  C         10.3160   23.4850   42.2220 C.2   181  TYR181      0.2620
    136  O          9.5000   22.8860   42.9290 O.2   181  TYR181     -0.2715
    137  CB        11.2890   21.2420   41.6990 C.3   181  TYR181      0.0574
    138  CG        12.4660   20.4880   41.1450 C.ar  181  TYR181     -0.0198
    139  CD1       13.4520   19.9810   41.9910 C.ar  181  TYR181     -0.0009
    140  CD2       12.6510   20.3690   39.7660 C.ar  181  TYR181     -0.0009
    141  CE1       14.6050   19.3860   41.4770 C.ar  181  TYR181      0.0417
    142  CE2       13.8030   19.7760   39.2390 C.ar  181  TYR181      0.0417
    143  CZ        14.7710   19.2950   40.1020 C.ar  181  TYR181      0.1957
    144  OH        15.9330   18.7630   39.6080 O.3   181  TYR181     -0.2866
    145  N         10.2520   24.7880   41.9730 N.am  182  THR182     -0.1937
    146  CA         9.2060   25.6160   42.5630 C.3   182  THR182      0.2028
    147  C          8.3520   26.3500   41.5530 C.2   182  THR182      0.2642
    148  O          8.8580   27.0810   40.6990 O.2   182  THR182     -0.2714
    149  CB         9.8270   26.6800   43.5130 C.3   182  THR182      0.1808
    150  OG1       10.5740   26.0100   44.5360 O.3   182  THR182     -0.2208
    151  CG2        8.7480   27.5100   44.1830 C.3   182  THR182      0.0379
    152  N          7.0470   26.1500   41.6250 N.am  183  ILE183     -0.1977
    153  CA         6.1980   26.8970   40.7260 C.3   183  ILE183      0.1596
    154  C          5.5950   27.9570   41.6190 C.2   183  ILE183      0.2287
    155  O          5.1530   27.6600   42.7270 O.2   183  ILE183     -0.2864
    156  CB         5.1570   26.0000   40.0210 C.3   183  ILE183      0.0276
    157  CG1        5.8590   25.2160   38.8900 C.3   183  ILE183      0.0022
    158  CG2        4.0380   26.8650   39.4340 C.3   183  ILE183      0.0022
    159  CD1        4.9890   24.2240   38.1800 C.3   183  ILE183      0.0001
@<TRIPOS>BOND
     1    58    59    2
     2    58    57    1
     3    42    41   ar
     4    57    56    1
     5    43    41   ar
     6    44    45    1
     7    41    40    1
     8    23    24    1
     9    23    20    1
    10    19    20    1
    11    56    53   am
    12    38    39    2
    13    38    37    1
    14    20    21    1
    15    45    46    1
    16    45    48    1
    17    37    40    1
    18    37    36    1
    19    51    46   am
    20    51    52    1
    21    53    52    1
    22    53    54    2
    23    50    48    1
    24    46    47    2
    25    52    55    1
    26    22    21    2
    27    48    49    1
    28    21    25   am
    29    35    34    2
    30    36    34   am
    31    34    33    1
    32    79    77   ar
    33    25    26    1
    34    28    27    2
    35    76    77    1
    36    76    73    1
    37    77    78   ar
    38    27    26    1
    39    27    32   am
    40    64    65    1
    41    64    61    1
    42    26    29    1
    43    33    32    1
    44    60    61    1
    45    72    73    1
    46    61    62    1
    47    73    74    1
    48    30    29    1
    49    75    74    2
    50    29    31    1
    51    86    85    1
    52    62    63    2
    53    62    66   am
    54     1     2    1
    55    85    84    1
    56    85    87    1
    57    66    67    1
    58    10    11    2
    59    10     9    1
    60     6     5    1
    61    84    81    1
    62     8     9    1
    63     2     5    1
    64     2     3    1
    65    71    70    1
    66    67    68    1
    67    67    70    1
    68    68    69    2
    69     5     7    1
    70     9    12    1
    71    80    81    1
    72    12    13    1
    73    83    82    2
    74    81    82    1
    75     3     4    2
    76    82    88   am
    77    13    14    1
    78   159   157    1
    79    15    14    1
    80    15    16    2
    81    18    16    1
    82    88    89    1
    83    16    17    1
    84   157   156    1
    85   100    98   ar
    86   142   140   ar
    87   142   143   ar
    88    89    90    1
    89    89    92    1
    90   158   156    1
    91   144   143    1
    92   140   138   ar
    93    98    97    1
    94    98    99   ar
    95   156   153    1
    96    90    91    2
    97    90    93   am
    98   143   141   ar
    99    97    94    1
   100    93    94    1
   101   128   127    2
   102   148   147    2
   103   153   154    1
   104   153   152    1
   105   123   122    1
   106    94    95    1
   107   138   137    1
   108   138   139   ar
   109   141   139   ar
   110   120   119    2
   111   147   152   am
   112   147   146    1
   113   121   122    1
   114   121   118    1
   115   134   137    1
   116   134   135    1
   117   134   133    1
   118   154   155    2
   119   127   133   am
   120   127   126    1
   121   145   135   am
   122   145   146    1
   123   122   124    1
   124   129   126    1
   125   129   130    1
   126   135   136    2
   127   119   118    1
   128    95    96    2
   129   146   149    1
   130   126   125    1
   131   130   132   ar
   132   130   131   ar
   133   118   117    1
   134   107   106    1
   135   117   111   am
   136   104   103    2
   137   108   106    1
   138   105   106    1
   139   105   102    1
   140   149   151    1
   141   149   150    1
   142   111   110    1
   143   111   112    2
   144   110   109    1
   145   110   113    1
   146   103   102    1
   147   102   101    1
   148   115   114    2
   149   113   114    1
   150   114   116   am
