@<TRIPOS>MOLECULE
tmp/2bb4B00.pdb
 116 111 0 0 0
SMALL
GASTEIGER

@<TRIPOS>ATOM
      1  N         -0.6610   25.6120   31.8750 N.3    29  THR29      -0.1203
      2  CA        -1.6600   24.6190   32.2620 C.3    29  THR29       0.1994
      3  C         -2.3360   24.8840   33.6000 C.2    29  THR29       0.2618
      4  O         -3.5000   24.5350   33.7900 O.2    29  THR29      -0.2717
      5  CB        -1.0880   23.1680   32.2390 C.3    29  THR29       0.1784
      6  OG1       -2.1600   22.2220   32.4590 O.3    29  THR29      -0.2211
      7  CG2        0.0150   22.9480   33.2880 C.3    29  THR29       0.0376
      8  N         -1.5940   25.4560   34.5440 N.am   30  CYS30      -0.1969
      9  CA        -2.1110   25.6740   35.8920 C.3    30  CYS30       0.1712
     10  C         -1.4690   26.8780   36.5220 C.2    30  CYS30       0.2296
     11  O         -0.4470   27.3690   36.0360 O.2    30  CYS30      -0.2864
     12  CB        -1.7960   24.4530   36.7980 C.3    30  CYS30       0.0983
     13  SG        -2.9860   23.1030   36.5820 S.3    30  CYS30      -0.0798
     14  N         -3.5720   17.6490   41.0570 N.3    45  HIS45      -0.1241
     15  CA        -4.0790   17.2080   39.7690 C.3    45  HIS45       0.1621
     16  C         -3.3490   17.8940   38.6000 C.2    45  HIS45       0.2264
     17  O         -3.3390   17.3860   37.4620 O.2    45  HIS45      -0.2867
     18  CB        -5.6190   17.3350   39.7040 C.3    45  HIS45       0.0745
     19  CG        -6.1260   18.7030   39.3480 C.ar   45  HIS45       0.0817
     20  ND1       -6.6950   19.5690   40.2690 N.ar   45  HIS45      -0.2268
     21  CD2       -6.1910   19.3340   38.1460 C.ar   45  HIS45       0.1154
     22  CE1       -7.0610   20.6870   39.6480 C.ar   45  HIS45       0.1986
     23  NE2       -6.7730   20.5610   38.3520 N.ar   45  HIS45      -0.2212
     24  N        -11.1440   13.5360   43.0870 N.3    88  VAL88      -0.1245
     25  CA       -10.7850   14.9070   43.4610 C.3    88  VAL88       0.1561
     26  C        -11.5940   15.3530   44.6840 C.2    88  VAL88       0.2260
     27  O        -11.1020   16.1310   45.5110 O.2    88  VAL88      -0.2867
     28  CB       -10.9620   15.9010   42.2870 C.3    88  VAL88       0.0252
     29  CG1      -10.4420   17.2670   42.6480 C.3    88  VAL88       0.0019
     30  CG2      -10.2630   15.3700   41.0280 C.3    88  VAL88       0.0019
     31  N        -13.5480   30.4870   39.1730 N.3   183  GLY183     -0.1210
     32  CA       -12.3510   29.9090   38.5150 C.3   183  GLY183      0.1956
     33  C        -12.8020   29.1670   37.2750 C.2   183  GLY183      0.2612
     34  O        -13.9970   28.9030   37.1050 O.2   183  GLY183     -0.2717
     35  N        -11.8480   28.7880   36.4260 N.am  184  CYS184     -0.1956
     36  CA       -12.2100   27.9460   35.2750 C.3   184  CYS184      0.1843
     37  C        -10.9430   27.2150   34.8750 C.2   184  CYS184      0.2625
     38  O         -9.8570   27.5100   35.4270 O.2   184  CYS184     -0.2714
     39  CB       -12.7900   28.8140   34.1630 C.3   184  CYS184      0.0997
     40  SG       -13.9010   27.9640   32.9950 S.3   184  CYS184     -0.0797
     41  N        -11.0410   26.3040   33.9220 N.am  185  GLN185     -0.1963
     42  CA        -9.8740   25.4640   33.5800 C.3   185  GLN185      0.1733
     43  C         -8.6340   26.2930   33.2960 C.2   185  GLN185      0.2617
     44  O         -8.6850   27.2620   32.5400 O.2   185  GLN185     -0.2715
     45  CB       -10.2190   24.6000   32.3740 C.3   185  GLN185      0.0408
     46  CG       -11.0780   23.3540   32.7720 C.3   185  GLN185      0.0908
     47  CD       -12.5530   23.6570   32.9790 C.2   185  GLN185      0.2608
     48  OE1      -13.0270   24.7430   32.6600 O.2   185  GLN185     -0.2717
     49  NE2      -13.3000   22.6710   33.5050 N.am  185  GLN185     -0.0878
     50  N         -7.5020   25.8970   33.8860 N.am  186  GLY186     -0.1940
     51  CA        -6.3230   26.7350   33.7290 C.3   186  GLY186      0.2014
     52  C         -6.0160   27.5630   34.9810 C.2   186  GLY186      0.2639
     53  O         -4.8760   28.0510   35.1470 O.2   186  GLY186     -0.2714
     54  N         -6.9910   27.6870   35.8830 N.am  187  ASP187     -0.1957
     55  CA        -6.7680   28.4110   37.1550 C.3   187  ASP187      0.1840
     56  C         -6.3260   27.4800   38.2570 C.2   187  ASP187      0.2622
     57  O         -5.7700   27.9410   39.2580 O.2   187  ASP187     -0.2715
     58  CB        -8.0560   29.1150   37.6040 C.3   187  ASP187      0.1450
     59  CG        -8.4080   30.3120   36.7390 C.2   187  ASP187      0.3671
     60  OD1       -7.4910   31.0580   36.3330 O.co2 187  ASP187     -0.2456
     61  OD2       -9.6270   30.5220   36.5080 O.co2 187  ASP187     -0.2456
     62  N         -6.5870   26.1730   38.0550 N.am  188  SER188     -0.1950
     63  CA        -6.2590   25.1530   39.0560 C.3   188  SER188      0.1924
     64  C         -4.8410   25.3590   39.5460 C.2   188  SER188      0.2314
     65  O         -3.9410   25.6530   38.7570 O.2   188  SER188     -0.2863
     66  CB        -6.3130   23.7690   38.4190 C.3   188  SER188      0.2116
     67  OG        -7.6460   23.4030   38.0600 O.3   188  SER188     -0.2180
     68  N         -6.6210   26.4750   44.0340 N.3   206  THR206     -0.1203
     69  CA        -7.7960   26.2050   43.2080 C.3   206  THR206      0.1994
     70  C         -7.8590   24.7530   42.7990 C.2   206  THR206      0.2619
     71  O         -6.8740   24.2110   42.2970 O.2   206  THR206     -0.2717
     72  CB        -7.7500   27.1030   41.9820 C.3   206  THR206      0.1784
     73  OG1       -7.6660   28.4570   42.4290 O.3   206  THR206     -0.2211
     74  CG2       -9.0190   26.9150   41.0760 C.3   206  THR206      0.0376
     75  N         -9.0070   24.1120   43.0290 N.am  207  SER207     -0.1937
     76  CA        -9.0850   22.6700   42.7750 C.3   207  SER207      0.2055
     77  C        -10.1470   22.2590   41.7540 C.2   207  SER207      0.2643
     78  O         -9.8240   21.5980   40.7720 O.2   207  SER207     -0.2714
     79  CB        -9.3030   21.8970   44.1030 C.3   207  SER207      0.2130
     80  OG        -9.3770   20.4610   43.9370 O.3   207  SER207     -0.2179
     81  N        -11.4200   22.5940   41.9890 N.am  208  PHE208     -0.1959
     82  CA       -12.4230   22.1940   41.0280 C.3   208  PHE208      0.1771
     83  C        -13.6440   23.1000   40.9220 C.2   208  PHE208      0.2619
     84  O        -13.9130   23.9090   41.7910 O.2   208  PHE208     -0.2715
     85  CB       -12.8430   20.7350   41.2440 C.3   208  PHE208      0.0574
     86  CG       -13.5060   20.4630   42.5670 C.ar  208  PHE208     -0.0200
     87  CD1      -12.7630   20.0350   43.6560 C.ar  208  PHE208     -0.0042
     88  CD2      -14.8870   20.5650   42.6990 C.ar  208  PHE208     -0.0042
     89  CE1      -13.3930   19.7310   44.8750 C.ar  208  PHE208     -0.0003
     90  CE2      -15.5100   20.2850   43.9150 C.ar  208  PHE208     -0.0003
     91  CZ       -14.7560   19.8500   44.9920 C.ar  208  PHE208     -0.0000
     92  N        -14.3240   22.9780   39.7770 N.am  209  VAL209     -0.1977
     93  CA       -15.6370   23.5830   39.5560 C.3   209  VAL209      0.1596
     94  C        -16.5970   22.4700   39.1260 C.2   209  VAL209      0.2287
     95  O        -16.2130   21.3100   38.9690 O.2   209  VAL209     -0.2864
     96  CB       -15.5870   24.7200   38.5060 C.3   209  VAL209      0.0276
     97  CG1      -14.7250   25.9330   38.9900 C.3   209  VAL209      0.0022
     98  CG2      -15.0470   24.1660   37.1710 C.3   209  VAL209      0.0022
     99  N        -18.8950   20.0750   36.8240 N.3   211  ARG211     -0.1245
    100  CA       -18.7330   19.5530   35.4690 C.3   211  ARG211      0.1563
    101  C        -19.7010   20.2480   34.5130 C.2   211  ARG211      0.2260
    102  O        -19.4790   20.2570   33.2860 O.2   211  ARG211     -0.2867
    103  CB       -18.9030   18.0250   35.4230 C.3   211  ARG211      0.0307
    104  CG       -17.7750   17.2270   36.1110 C.3   211  ARG211      0.0489
    105  CD       -18.1780   15.7410   36.3900 C.3   211  ARG211      0.2205
    106  NE       -19.2230   15.2990   35.4850 N.pl3 211  ARG211     -0.0865
    107  CZ       -20.3960   14.7950   35.8560 C.cat 211  ARG211      0.5346
    108  NH1      -20.6970   14.6050   37.1450 N.pl3 211  ARG211      0.1354
    109  NH2      -21.2620   14.4620   34.9240 N.pl3 211  ARG211      0.1354
    110  N        -16.5420   28.0090   43.3410 N.3   221  THR221     -0.1218
    111  CA       -15.2690   27.3810   43.0490 C.3   221  THR221      0.1862
    112  C        -14.7620   26.7370   44.3270 C.2   221  THR221      0.2287
    113  O        -14.9780   27.2820   45.4310 O.2   221  THR221     -0.2866
    114  CB       -14.2940   28.4140   42.5140 C.3   221  THR221      0.1770
    115  OG1      -14.9150   29.0760   41.3790 O.3   221  THR221     -0.2211
    116  CG2      -12.9920   27.7510   42.0860 C.3   221  THR221      0.0375
@<TRIPOS>BOND
     1     1     2    1
     2     5     2    1
     3     5     6    1
     4     5     7    1
     5     2     3    1
     6    45    46    1
     7    45    42    1
     8    44    43    2
     9    48    47    2
    10    46    47    1
    11    47    49   am
    12    40    39    1
    13   102   101    2
    14    43    42    1
    15    43    50   am
    16    42    41    1
    17     3     4    2
    18     3     8   am
    19    51    50    1
    20    51    52    1
    21    41    37   am
    22    39    36    1
    23   101   100    1
    24     8     9    1
    25    37    36    1
    26    37    38    2
    27   109   107    1
    28    52    53    2
    29    52    54   am
    30    36    35    1
    31   103   100    1
    32   103   104    1
    33   100    99    1
    34   106   107    2
    35   106   105    1
    36   107   108    1
    37    54    55    1
    38     9    10    1
    39     9    12    1
    40    11    10    2
    41   104   105    1
    42    60    59   ar
    43    35    33   am
    44    61    59   ar
    45    13    12    1
    46    59    58    1
    47    34    33    2
    48    55    58    1
    49    55    56    1
    50    98    96    1
    51    33    32    1
    52    17    16    2
    53    62    56   am
    54    62    63    1
    55    67    66    1
    56    21    23   ar
    57    21    19   ar
    58    56    57    2
    59    23    22   ar
    60    66    63    1
    61    96    97    1
    62    96    93    1
    63    32    31    1
    64    16    15    1
    65    65    64    2
    66    95    94    2
    67    63    64    1
    68    94    93    1
    69    19    18    1
    70    19    20   ar
    71    93    92    1
    72    22    20   ar
    73    18    15    1
    74    15    14    1
    75    92    83   am
    76    78    77    2
    77    83    82    1
    78    83    84    2
    79    82    85    1
    80    82    81    1
    81    30    28    1
    82    74    72    1
    83    85    86    1
    84   115   114    1
    85    77    81   am
    86    77    76    1
    87    72    73    1
    88    72    69    1
    89   116   114    1
    90    28    29    1
    91    28    25    1
    92    71    70    2
    93   114   111    1
    94    86    88   ar
    95    86    87   ar
    96    88    90   ar
    97    76    75    1
    98    76    79    1
    99    70    75   am
   100    70    69    1
   101   111   110    1
   102   111   112    1
   103    24    25    1
   104    69    68    1
   105    25    26    1
   106    87    89   ar
   107    90    91   ar
   108    80    79    1
   109   112   113    2
   110    26    27    2
   111    89    91   ar
