@<TRIPOS>MOLECULE
tmp/2bb7A00.pdb
 133 131 0 0 0
SMALL
GASTEIGER

@<TRIPOS>ATOM
      1  N         -4.5720    6.9520   10.0050 N.3    55  CYS55      -0.1235
      2  CA        -5.2870    5.7450   10.4420 C.3    55  CYS55       0.1677
      3  C         -6.7600    6.0070   10.7080 C.2    55  CYS55       0.2270
      4  O         -7.5850    5.1350   10.4650 O.2    55  CYS55      -0.2867
      5  CB        -4.6980    5.2300   11.7390 C.3    55  CYS55       0.0956
      6  SG        -2.9630    4.8690   11.6100 S.3    55  CYS55      -0.0801
      7  N         -9.4550    5.3770    8.1560 N.3    58  TYR58      -0.1227
      8  CA        -8.8850    4.5980    7.0520 C.3    58  TYR58       0.1736
      9  C         -9.4510    3.2020    6.9540 C.2    58  TYR58       0.2595
     10  O         -9.2860    2.3620    7.8610 O.2    58  TYR58      -0.2718
     11  CB        -7.3540    4.5310    7.1460 C.3    58  TYR58       0.0548
     12  CG        -6.6720    3.8100    5.9910 C.ar   58  TYR58      -0.0200
     13  CD1       -6.5400    4.4120    4.7300 C.ar   58  TYR58      -0.0009
     14  CD2       -6.1240    2.5440    6.1720 C.ar   58  TYR58      -0.0009
     15  CE1       -5.8950    3.7540    3.6880 C.ar   58  TYR58       0.0417
     16  CE2       -5.4740    1.8790    5.1530 C.ar   58  TYR58       0.0417
     17  CZ        -5.3480    2.4930    3.9150 C.ar   58  TYR58       0.1957
     18  OH        -4.6990    1.8200    2.9140 O.3    58  TYR58      -0.2866
     19  N        -10.1130    2.9380    5.8240 N.am   59  HIS59      -0.1975
     20  CA       -10.8190    1.6750    5.6660 C.3    59  HIS59       0.1656
     21  C        -11.7210    1.3980    6.8960 C.2    59  HIS59       0.2291
     22  O        -11.9650    0.2560    7.2570 O.2    59  HIS59      -0.2864
     23  CB        -9.8330    0.5190    5.3790 C.3    59  HIS59       0.0771
     24  CG        -9.0700    0.6600    4.0940 C.ar   59  HIS59       0.0820
     25  ND1       -8.6550   -0.4310    3.3560 N.ar   59  HIS59      -0.2267
     26  CD2       -8.6580    1.7560    3.4090 C.ar   59  HIS59       0.1154
     27  CE1       -8.0160   -0.0140    2.2770 C.ar   59  HIS59       0.1986
     28  NE2       -8.0070    1.3100    2.2830 N.ar   59  HIS59      -0.2212
     29  N        -11.1510    2.4260   10.1540 N.3    61  TYR61      -0.1241
     30  CA       -10.4560    2.2990   11.4520 C.3    61  TYR61       0.1605
     31  C        -10.9080    3.3990   12.4300 C.2    61  TYR61       0.2264
     32  O        -10.8860    4.5790   12.0450 O.2    61  TYR61      -0.2867
     33  CB        -8.9090    2.3030   11.2560 C.3    61  TYR61       0.0534
     34  CG        -8.1960    2.0070   12.5440 C.ar   61  TYR61      -0.0201
     35  CD1       -8.1440    0.7120   13.0590 C.ar   61  TYR61      -0.0009
     36  CD2       -7.6200    3.0400   13.2870 C.ar   61  TYR61      -0.0009
     37  CE1       -7.5360    0.4480   14.2700 C.ar   61  TYR61       0.0417
     38  CE2       -6.9940    2.7820   14.5000 C.ar   61  TYR61       0.0417
     39  CZ        -6.9520    1.4980   14.9820 C.ar   61  TYR61       0.1957
     40  OH        -6.3530    1.2480   16.1920 O.3    61  TYR61      -0.2866
     41  N         -2.5300    2.6490   16.3460 N.3    66  CYS66      -0.1235
     42  CA        -2.7440    1.2390   16.7620 C.3    66  CYS66       0.1677
     43  C         -1.8420    0.9540   17.9300 C.2    66  CYS66       0.2270
     44  O         -0.6340    1.2780   17.8940 O.2    66  CYS66      -0.2867
     45  CB        -2.4380    0.2310   15.6600 C.3    66  CYS66       0.0956
     46  SG        -3.4380    0.4940   14.1870 S.3    66  CYS66      -0.0801
     47  N         -2.6770   -3.8610   15.0250 N.3    75  HIS75      -0.1241
     48  CA        -4.0220   -3.2930   14.9230 C.3    75  HIS75       0.1621
     49  C         -4.8090   -3.3150   16.2370 C.2    75  HIS75       0.2264
     50  O         -6.0500   -3.2430   16.2350 O.2    75  HIS75      -0.2867
     51  CB        -4.8300   -3.9280   13.7320 C.3    75  HIS75       0.0745
     52  CG        -4.2540   -3.5980   12.3880 C.ar   75  HIS75       0.0817
     53  ND1       -4.6980   -4.1830   11.2110 N.ar   75  HIS75      -0.2268
     54  CD2       -3.2350   -2.7730   12.0340 C.ar   75  HIS75       0.1154
     55  CE1       -3.9900   -3.7050   10.2000 C.ar   75  HIS75       0.1986
     56  NE2       -3.1170   -2.8350   10.6690 N.ar   75  HIS75      -0.2212
     57  N          1.8950    2.1630   16.6730 N.3    93  ASP93      -0.1239
     58  CA         2.0610    2.3240   15.2550 C.3    93  ASP93       0.1674
     59  C          1.3120    3.5780   14.8070 C.2    93  ASP93       0.2266
     60  O          0.0800    3.7070   14.9670 O.2    93  ASP93      -0.2867
     61  CB         1.5570    1.0670   14.5170 C.3    93  ASP93       0.1410
     62  CG         1.9190    1.0800   13.0240 C.2    93  ASP93       0.3668
     63  OD1        2.5620    2.0490   12.5470 O.co2  93  ASP93      -0.2456
     64  OD2        1.5960    0.0960   12.3260 O.co2  93  ASP93      -0.2456
     65  N          0.7390    6.6710   11.8190 N.3    95  THR95      -0.1218
     66  CA         0.8650    7.1940   10.4670 C.3    95  THR95       0.1862
     67  C          0.2230    8.5630   10.4370 C.2    95  THR95       0.2287
     68  O         -0.9100    8.7350   10.9110 O.2    95  THR95      -0.2866
     69  CB         0.3360    6.2340    9.3860 C.3    95  THR95       0.1770
     70  OG1        0.9540    4.9360    9.5590 O.3    95  THR95      -0.2211
     71  CG2        0.6510    6.8010    7.9660 C.3    95  THR95       0.0375
     72  N          1.0220   -9.8980    7.0430 N.3   164  TYR164     -0.1227
     73  CA         1.2750   -8.4510    7.0490 C.3   164  TYR164      0.1736
     74  C          2.6610   -8.1530    6.4880 C.2   164  TYR164      0.2595
     75  O          3.5920   -8.9900    6.5790 O.2   164  TYR164     -0.2718
     76  CB         1.0840   -7.8680    8.4610 C.3   164  TYR164      0.0548
     77  CG        -0.3510   -7.9620    8.8820 C.ar  164  TYR164     -0.0200
     78  CD1       -0.8230   -9.0650    9.5900 C.ar  164  TYR164     -0.0009
     79  CD2       -1.2640   -6.9930    8.4790 C.ar  164  TYR164     -0.0009
     80  CE1       -2.1780   -9.1680    9.9320 C.ar  164  TYR164      0.0417
     81  CE2       -2.6040   -7.0910    8.8040 C.ar  164  TYR164      0.0417
     82  CZ        -3.0520   -8.1800    9.5240 C.ar  164  TYR164      0.1957
     83  OH        -4.3880   -8.2440    9.8400 O.3   164  TYR164     -0.2866
     84  N          2.7940   -6.9780    5.8730 N.am  165  CYS165     -0.1970
     85  CA         4.0240   -6.6190    5.1960 C.3   165  CYS165      0.1712
     86  C          4.2000   -5.1060    5.1410 C.2   165  CYS165      0.2296
     87  O          3.2520   -4.3410    5.4590 O.2   165  CYS165     -0.2864
     88  CB         4.0060   -7.2000    3.7750 C.3   165  CYS165      0.0983
     89  SG         2.6860   -6.5350    2.7630 S.3   165  CYS165     -0.0798
     90  N         -1.4690    5.4960    1.3950 N.3   173  PHE173     -0.1227
     91  CA        -1.0220    4.9040    2.6620 C.3   173  PHE173      0.1736
     92  C         -0.3320    3.5550    2.3430 C.2   173  PHE173      0.2595
     93  O          0.8880    3.4050    2.5540 O.2   173  PHE173     -0.2718
     94  CB        -2.2420    4.7560    3.5650 C.3   173  PHE173      0.0547
     95  CG        -1.9390    4.3340    5.0010 C.ar  173  PHE173     -0.0202
     96  CD1       -0.6540    3.9970    5.4260 C.ar  173  PHE173     -0.0042
     97  CD2       -2.9940    4.2200    5.8950 C.ar  173  PHE173     -0.0042
     98  CE1       -0.4260    3.5590    6.7830 C.ar  173  PHE173     -0.0003
     99  CE2       -2.7820    3.8040    7.2220 C.ar  173  PHE173     -0.0003
    100  CZ        -1.5000    3.4710    7.6510 C.ar  173  PHE173     -0.0000
    101  N         -1.0840    2.6000    1.7880 N.am  174  HIS174     -0.1975
    102  CA        -0.4750    1.2970    1.4420 C.3   174  HIS174      0.1656
    103  C         -0.4230    1.1320   -0.0840 C.2   174  HIS174      0.2291
    104  O         -1.3700    0.6360   -0.6640 O.2   174  HIS174     -0.2864
    105  CB        -1.2300    0.1330    2.1170 C.3   174  HIS174      0.0771
    106  CG        -1.3510    0.2750    3.6100 C.ar  174  HIS174      0.0820
    107  ND1       -2.3930    0.9500    4.2140 N.ar  174  HIS174     -0.2267
    108  CD2       -0.5530   -0.1660    4.6200 C.ar  174  HIS174      0.1154
    109  CE1       -2.2190    0.9380    5.5270 C.ar  174  HIS174      0.1986
    110  NE2       -1.1240    0.2490    5.8010 N.ar  174  HIS174     -0.2212
    111  N          8.6790   -3.3240    8.1130 N.3   200  GLU200     -0.1245
    112  CA         7.8960   -3.4190    9.3470 C.3   200  GLU200      0.1567
    113  C          7.7030   -4.8710    9.8800 C.2   200  GLU200      0.2260
    114  O          6.5790   -5.3390   10.1080 O.2   200  GLU200     -0.2867
    115  CB         6.5650   -2.6460    9.1900 C.3   200  GLU200      0.0388
    116  CG         5.6420   -3.2020    8.1090 C.3   200  GLU200      0.1160
    117  CD         4.4050   -2.3180    7.9480 C.2   200  GLU200      0.3649
    118  OE1        3.4110   -2.5710    8.6350 O.co2 200  GLU200     -0.2457
    119  OE2        4.4820   -1.3680    7.1550 O.co2 200  GLU200     -0.2457
    120  N        -10.5510   -5.9940   13.7590 N.3   217  TRP217     -0.1241
    121  CA        -9.2220   -5.3630   13.6910 C.3   217  TRP217      0.1605
    122  C         -8.1140   -6.0940   14.4440 C.2   217  TRP217      0.2264
    123  O         -7.0720   -6.4000   13.8720 O.2   217  TRP217     -0.2867
    124  CB        -9.3110   -3.9100   14.1690 C.3   217  TRP217      0.0550
    125  CG       -10.0520   -3.0400   13.1980 C.ar  217  TRP217      0.0003
    126  CD1      -11.3350   -2.5670   13.3180 C.ar  217  TRP217      0.0946
    127  CD2       -9.5600   -2.5610   11.9510 C.ar  217  TRP217      0.0152
    128  NE1      -11.6560   -1.7960   12.2270 N.ar  217  TRP217     -0.2442
    129  CE2      -10.5910   -1.7840   11.3630 C.ar  217  TRP217      0.0810
    130  CE3       -8.3370   -2.6890   11.2790 C.ar  217  TRP217      0.0012
    131  CZ2      -10.4440   -1.1580   10.1260 C.ar  217  TRP217      0.0191
    132  CZ3       -8.1860   -2.0590   10.0400 C.ar  217  TRP217      0.0001
    133  CH2       -9.2390   -1.2880    9.4860 C.ar  217  TRP217      0.0015
@<TRIPOS>BOND
     1   104   103    2
     2   103   102    1
     3    90    91    1
     4   102   101    1
     5   102   105    1
     6   101    92   am
     7   105   106    1
     8    27    28   ar
     9    27    25   ar
    10    28    26   ar
    11    92    93    2
    12    92    91    1
    13    91    94    1
    14    89    88    1
    15    18    17    1
    16    25    24   ar
    17    26    24   ar
    18    94    95    1
    19   106   107   ar
    20   106   108   ar
    21    15    17   ar
    22    15    13   ar
    23    88    85    1
    24    17    16   ar
    25    24    23    1
    26   107   109   ar
    27   108   110   ar
    28    13    12   ar
    29    95    96   ar
    30    95    97   ar
    31    86    85    1
    32    86    87    2
    33    16    14   ar
    34    85    84    1
    35    23    20    1
    36    96    98   ar
    37   109   110   ar
    38    20    19    1
    39    20    21    1
    40    19     9   am
    41    84    74   am
    42    97    99   ar
    43    12    14   ar
    44    12    11    1
    45    74    75    2
    46    74    73    1
    47    98   100   ar
    48    21    22    2
    49     9     8    1
    50     9    10    2
    51    72    73    1
    52    73    76    1
    53     8    11    1
    54     8     7    1
    55   119   117   ar
    56    99   100   ar
    57   117   116    1
    58   117   118   ar
    59    71    69    1
    60   116   115    1
    61   111   112    1
    62    76    77    1
    63    79    81   ar
    64    79    77   ar
    65    81    82   ar
    66    77    78   ar
    67   115   112    1
    68   112   113    1
    69    69    70    1
    70    69    66    1
    71   133   132   ar
    72   133   131   ar
    73    82    83    1
    74    82    80   ar
    75    78    80   ar
    76   113   114    2
    77     1     2    1
    78   132   130   ar
    79   131   129   ar
    80    29    30    1
    81    55    56   ar
    82    55    53   ar
    83    67    66    1
    84    67    68    2
    85     2     3    1
    86     2     5    1
    87     4     3    2
    88    66    65    1
    89    56    54   ar
    90    53    52   ar
    91    33    30    1
    92    33    34    1
    93   130   127   ar
    94   129   127   ar
    95   129   128   ar
    96    30    31    1
    97     6     5    1
    98   127   125   ar
    99    54    52   ar
   100    32    31    2
   101   128   126   ar
   102    64    62   ar
   103    52    51    1
   104    34    35   ar
   105    34    36   ar
   106    63    62   ar
   107    62    61    1
   108    35    37   ar
   109   125   126   ar
   110   125   124    1
   111    36    38   ar
   112   121   120    1
   113   121   124    1
   114   121   122    1
   115    51    48    1
   116   123   122    2
   117    46    45    1
   118    37    39   ar
   119    38    39   ar
   120    61    58    1
   121    59    60    2
   122    59    58    1
   123    48    47    1
   124    48    49    1
   125    39    40    1
   126    58    57    1
   127    45    42    1
   128    50    49    2
   129    41    42    1
   130    42    43    1
   131    44    43    2
