@<TRIPOS>MOLECULE
tmp/2bb9A00.pdb
 105 98 0 0 0
SMALL
GASTEIGER

@<TRIPOS>ATOM
      1  N          2.5960   18.8370    5.7870 N.3     8  ARG8       -0.1245
      2  CA         3.8480   18.2280    6.2150 C.3     8  ARG8        0.1563
      3  C          3.5360   16.8200    6.6930 C.2     8  ARG8        0.2260
      4  O          2.5410   16.6030    7.3850 O.2     8  ARG8       -0.2867
      5  CB         4.4690   19.0180    7.3610 C.3     8  ARG8        0.0307
      6  CG         4.9980   20.3680    6.9510 C.3     8  ARG8        0.0489
      7  CD         5.7460   21.0010    8.1090 C.3     8  ARG8        0.2205
      8  NE         6.4510   22.2110    7.7010 N.pl3   8  ARG8       -0.0865
      9  CZ         7.2400   22.9270    8.4970 C.cat   8  ARG8        0.5346
     10  NH1        7.8360   24.0120    8.0280 N.pl3   8  ARG8        0.1354
     11  NH2        7.4340   22.5630    9.7590 N.pl3   8  ARG8        0.1354
     12  N          8.8170   14.7310   11.7270 N.3    23  LEU23      -0.1245
     13  CA         8.6350   14.9400   10.2990 C.3    23  LEU23       0.1561
     14  C          9.3550   13.8710    9.4830 C.2    23  LEU23       0.2260
     15  O         10.5430   13.6260    9.6830 O.2    23  LEU23      -0.2867
     16  CB         9.1740   16.3260    9.9370 C.3    23  LEU23       0.0270
     17  CG         9.1940   16.7930    8.4830 C.3    23  LEU23       0.0019
     18  CD1        7.7790   16.9080    7.9470 C.3    23  LEU23       0.0001
     19  CD2        9.9020   18.1380    8.4140 C.3    23  LEU23       0.0001
     20  N         11.3170   12.9350    6.6450 N.3    25  ASP25      -0.1239
     21  CA        12.1160   13.7000    5.6860 C.3    25  ASP25       0.1674
     22  C         13.0200   12.8670    4.7830 C.2    25  ASP25       0.2266
     23  O         14.1030   12.4230    5.1930 O.2    25  ASP25      -0.2867
     24  CB        12.9670   14.7230    6.4410 C.3    25  ASP25       0.1410
     25  CG        13.7530   15.6400    5.5040 C.2    25  ASP25       0.3668
     26  OD1       14.5610   16.4470    5.9930 O.co2  25  ASP25      -0.2456
     27  OD2       13.5560   15.5590    4.2730 O.co2  25  ASP25      -0.2456
     28  N         14.7360   13.8990    2.4110 N.3    27  GLY27      -0.1210
     29  CA        15.9400   14.6390    2.0790 C.3    27  GLY27       0.1956
     30  C         17.0120   14.6290    3.1530 C.2    27  GLY27       0.2612
     31  O         18.0220   15.3170    3.0040 O.2    27  GLY27      -0.2717
     32  N         16.8160   13.8550    4.2210 N.am   28  ALA28      -0.1965
     33  CA        17.7930   13.7940    5.3050 C.3    28  ALA28       0.1728
     34  C         18.4060   12.4080    5.4370 C.2    28  ALA28       0.2616
     35  O         17.6920   11.4130    5.4780 O.2    28  ALA28      -0.2715
     36  CB        17.1400   14.1930    6.6200 C.3    28  ALA28       0.0334
     37  N         19.7340   12.3510    5.5060 N.am   29  ASP29      -0.1957
     38  CA        20.4470   11.0860    5.6440 C.3    29  ASP29       0.1840
     39  C         20.2150   10.5060    7.0370 C.2    29  ASP29       0.2622
     40  O         20.0660    9.2930    7.2000 O.2    29  ASP29      -0.2715
     41  CB        21.9660   11.2800    5.4920 C.3    29  ASP29       0.1450
     42  CG        22.3950   11.7140    4.0980 C.2    29  ASP29       0.3671
     43  OD1       23.5960   12.0360    3.9500 O.co2  29  ASP29      -0.2456
     44  OD2       21.5720   11.7380    3.1580 O.co2  29  ASP29      -0.2456
     45  N         20.2070   11.3890    8.0340 N.am   30  ASP30      -0.1971
     46  CA        20.0720   10.9950    9.4320 C.3    30  ASP30       0.1709
     47  C         18.7800   11.4440   10.0970 C.2    30  ASP30       0.2293
     48  O         17.9890   12.1860    9.5260 O.2    30  ASP30      -0.2864
     49  CB        21.2410   11.5580   10.2510 C.3    30  ASP30       0.1436
     50  CG        22.5810   11.3960    9.5610 C.2    30  ASP30       0.3671
     51  OD1       22.8670   10.2940    9.0540 O.co2  30  ASP30      -0.2456
     52  OD2       23.3540   12.3760    9.5420 O.co2  30  ASP30      -0.2456
     53  N         17.3140   13.3280   13.4940 N.3    32  VAL32      -0.1245
     54  CA        17.7330   14.2190   14.5670 C.3    32  VAL32       0.1561
     55  C         16.5220   14.7020   15.3510 C.2    32  VAL32       0.2260
     56  O         15.5210   15.1290   14.7790 O.2    32  VAL32      -0.2867
     57  CB        18.5690   15.4320   14.0200 C.3    32  VAL32       0.0252
     58  CG1       17.7380   16.2600   13.0520 C.3    32  VAL32       0.0019
     59  CG2       19.0720   16.2920   15.1790 C.3    32  VAL32       0.0019
     60  N         26.1060   18.4640   11.7550 N.3    47  ILE47      -0.1231
     61  CA        25.2530   18.2380   10.5960 C.3    47  ILE47       0.1692
     62  C         24.8670   19.5910   10.0130 C.2    47  ILE47       0.2593
     63  O         24.5820   20.5420   10.7430 O.2    47  ILE47      -0.2718
     64  CB        23.9770   17.4120   10.9470 C.3    47  ILE47       0.0266
     65  CG1       23.1950   18.0550   12.0970 C.3    47  ILE47       0.0019
     66  CG2       24.3870   15.9750   11.2930 C.3    47  ILE47       0.0020
     67  CD1       21.8560   17.3820   12.3930 C.3    47  ILE47       0.0001
     68  N         24.8630   19.6760    8.6900 N.am   48  GLY48      -0.1942
     69  CA        24.5480   20.9370    8.0590 C.3    48  GLY48       0.2014
     70  C         23.4680   20.8810    7.0080 C.2    48  GLY48       0.2639
     71  O         23.1580   19.8320    6.4480 O.2    48  GLY48      -0.2714
     72  N         22.8870   22.0420    6.7530 N.am   49  GLY49      -0.1939
     73  CA        21.8450   22.1480    5.7570 C.3    49  GLY49       0.2014
     74  C         21.5700   23.6100    5.5080 C.2    49  GLY49       0.2638
     75  O         22.4770   24.4380    5.5510 O.2    49  GLY49      -0.2714
     76  N         20.3140   23.9310    5.2320 N.am   50  ILE50      -0.1977
     77  CA        19.9240   25.3090    5.0020 C.3    50  ILE50       0.1596
     78  C         20.1870   26.0850    6.2930 C.2    50  ILE50       0.2287
     79  O         19.7440   25.6780    7.3650 O.2    50  ILE50      -0.2864
     80  CB        18.4210   25.4020    4.6430 C.3    50  ILE50       0.0276
     81  CG1       18.1930   24.7570    3.2740 C.3    50  ILE50       0.0022
     82  CG2       17.9560   26.8510    4.6570 C.3    50  ILE50       0.0022
     83  CD1       18.8680   25.4920    2.1370 C.3    50  ILE50       0.0001
     84  N         15.3180   22.5700   14.7260 N.3    81  PRO81      -0.2102
     85  CA        14.0730   23.2680   14.8330 C.3    81  PRO81       0.1504
     86  C         12.8520   22.3460   14.9530 C.2    81  PRO81       0.2575
     87  O         11.8310   22.7270   15.5260 O.2    81  PRO81      -0.2718
     88  CB        14.0340   24.1130   13.5570 C.3    81  PRO81       0.0282
     89  CG        15.4630   24.3630   13.2680 C.3    81  PRO81       0.0208
     90  CD        16.0720   23.0120   13.5390 C.3    81  PRO81       0.0893
     91  N         12.9610   21.1360   14.4120 N.am   82  VAL82      -0.1980
     92  CA        11.8650   20.1700   14.4450 C.3    82  VAL82       0.1595
     93  C         12.4350   18.7510   14.4780 C.2    82  VAL82       0.2287
     94  O         13.5550   18.5220   14.0260 O.2    82  VAL82      -0.2864
     95  CB        10.9690   20.3160   13.1730 C.3    82  VAL82       0.0276
     96  CG1       11.7600   19.9100   11.9380 C.3    82  VAL82       0.0022
     97  CG2        9.7130   19.4770   13.3000 C.3    82  VAL82       0.0022
     98  N         13.1390   15.2790   13.1850 N.3    84  ILE84      -0.1245
     99  CA        13.2460   14.7710   11.8240 C.3    84  ILE84       0.1561
    100  C         13.5880   13.2910   11.7480 C.2    84  ILE84       0.2260
    101  O         14.5690   12.8560   12.3420 O.2    84  ILE84      -0.2867
    102  CB        14.3650   15.5380   11.0590 C.3    84  ILE84       0.0252
    103  CG1       13.9730   17.0150   10.9520 C.3    84  ILE84       0.0019
    104  CG2       14.6130   14.9070    9.6890 C.3    84  ILE84       0.0019
    105  CD1       15.1160   17.9230   10.5210 C.3    84  ILE84       0.0001
@<TRIPOS>BOND
     1    29    28    1
     2    29    30    1
     3    83    81    1
     4    31    30    2
     5    30    32   am
     6    44    42   ar
     7    81    80    1
     8    43    42   ar
     9    42    41    1
    10    32    33    1
    11    27    25   ar
    12    80    82    1
    13    80    77    1
    14    22    23    2
    15    22    21    1
    16    77    76    1
    17    77    78    1
    18    76    74   am
    19    33    34    1
    20    33    36    1
    21    34    35    2
    22    34    37   am
    23    41    38    1
    24    25    26   ar
    25    25    24    1
    26    37    38    1
    27    74    75    2
    28    74    73    1
    29    38    39    1
    30    21    24    1
    31    21    20    1
    32    73    72    1
    33     1     2    1
    34     2     3    1
    35     2     5    1
    36    78    79    2
    37    71    70    2
    38     3     4    2
    39    72    70   am
    40     6     5    1
    41     6     7    1
    42    70    69    1
    43    39    40    2
    44    39    45   am
    45     8     7    1
    46     8     9    2
    47    18    17    1
    48    10     9    1
    49    45    46    1
    50    69    68    1
    51    19    17    1
    52    17    16    1
    53     9    11    1
    54    68    62   am
    55    51    50   ar
    56    46    47    1
    57    46    49    1
    58    14    15    2
    59    14    13    1
    60    48    47    2
    61    52    50   ar
    62    50    49    1
    63   104   102    1
    64    16    13    1
    65    62    61    1
    66    62    63    2
    67    13    12    1
    68   105   103    1
    69    61    64    1
    70    61    60    1
    71    64    66    1
    72    64    65    1
    73   103   102    1
    74   102    99    1
    75   100    99    1
    76   100   101    2
    77    99    98    1
    78    96    95    1
    79    65    67    1
    80    58    57    1
    81    95    97    1
    82    95    92    1
    83    89    90    1
    84    89    88    1
    85    53    54    1
    86    90    84    1
    87    88    85    1
    88    57    54    1
    89    57    59    1
    90    94    93    2
    91    91    92    1
    92    91    86   am
    93    92    93    1
    94    54    55    1
    95    84    85    1
    96    56    55    2
    97    85    86    1
    98    86    87    2
