@<TRIPOS>MOLECULE
tmp/2bbbB00.pdb
 105 98 0 0 0
SMALL
GASTEIGER

@<TRIPOS>ATOM
      1  N         20.0490    8.3050   -1.3290 N.3     8  ARG8       -0.1245
      2  CA        19.3220    9.5620   -1.4810 C.3     8  ARG8        0.1563
      3  C         18.4480    9.5180   -2.7220 C.2     8  ARG8        0.2260
      4  O         18.8880    9.0570   -3.7780 O.2     8  ARG8       -0.2867
      5  CB        20.2830   10.7320   -1.5950 C.3     8  ARG8        0.0307
      6  CG        20.9900   11.0710   -0.3010 C.3     8  ARG8        0.0489
      7  CD        21.8410   12.3160   -0.4580 C.3     8  ARG8        0.2205
      8  NE        22.4730   12.6770    0.8030 N.pl3   8  ARG8       -0.0865
      9  CZ        23.2480   13.7420    0.9850 C.cat   8  ARG8        0.5346
     10  NH1       23.7720   13.9730    2.1790 N.pl3   8  ARG8        0.1354
     11  NH2       23.4950   14.5790   -0.0170 N.pl3   8  ARG8        0.1354
     12  N         17.1120   16.6030   -5.1630 N.3    23  LEU23      -0.1245
     13  CA        16.6670   15.6640   -4.1410 C.3    23  LEU23       0.1561
     14  C         15.1820   15.7850   -3.8080 C.2    23  LEU23       0.2260
     15  O         14.7020   16.8770   -3.4980 O.2    23  LEU23      -0.2867
     16  CB        17.4810   15.8980   -2.8560 C.3    23  LEU23       0.0270
     17  CG        17.2230   15.0710   -1.6150 C.3    23  LEU23       0.0019
     18  CD1       17.7360   13.6560   -1.8370 C.3    23  LEU23       0.0001
     19  CD2       17.9350   15.7080   -0.4280 C.3    23  LEU23       0.0001
     20  N         12.6240   15.8480   -1.4590 N.3    25  ASP25      -0.1239
     21  CA        12.6860   16.1480   -0.0320 C.3    25  ASP25       0.1674
     22  C         11.3240   16.3760    0.6350 C.2    25  ASP25       0.2266
     23  O         10.8130   17.4930    0.6450 O.2    25  ASP25      -0.2867
     24  CB        13.5960   17.4230    0.1040 C.3    25  ASP25       0.1410
     25  CG        14.1710   17.6060    1.4730 C.2    25  ASP25       0.3668
     26  OD1       15.4010   17.8140    1.5590 O.co2  25  ASP25      -0.2456
     27  OD2       13.4160   17.5640    2.4600 O.co2  25  ASP25      -0.2456
     28  N         10.6230   16.5960    3.6620 N.3    27  GLY27      -0.1210
     29  CA        10.7280   17.4540    4.8340 C.3    27  GLY27       0.1956
     30  C         10.7980   18.9330    4.4800 C.2    27  GLY27       0.2612
     31  O         10.8640   19.7900    5.3640 O.2    27  GLY27      -0.2717
     32  N         10.7820   19.2380    3.1850 N.am   28  ALA28      -0.1965
     33  CA        10.8430   20.6170    2.7220 C.3    28  ALA28       0.1728
     34  C          9.4860   21.0680    2.1850 C.2    28  ALA28       0.2616
     35  O          8.9310   20.4490    1.2810 O.2    28  ALA28      -0.2715
     36  CB        11.9110   20.7570    1.6330 C.3    28  ALA28       0.0334
     37  N          8.9490   22.1410    2.7580 N.am   29  ASP29      -0.1957
     38  CA         7.6610   22.6800    2.3180 C.3    29  ASP29       0.1840
     39  C          7.7790   23.2110    0.8910 C.2    29  ASP29       0.2622
     40  O          6.8670   23.0600    0.0710 O.2    29  ASP29      -0.2715
     41  CB         7.2280   23.8760    3.2000 C.3    29  ASP29       0.1450
     42  CG         6.9490   23.4990    4.6290 C.2    29  ASP29       0.3671
     43  OD1        6.9630   24.4220    5.4740 O.co2  29  ASP29      -0.2456
     44  OD2        6.6980   22.3120    4.9190 O.co2  29  ASP29      -0.2456
     45  N          8.9090   23.8590    0.6210 N.am   30  ASP30      -0.1971
     46  CA         9.1690   24.4910   -0.6690 C.3    30  ASP30       0.1709
     47  C         10.3200   23.8780   -1.4510 C.2    30  ASP30       0.2293
     48  O         11.0300   22.9950   -0.9670 O.2    30  ASP30      -0.2864
     49  CB         9.4760   25.9850   -0.4500 C.3    30  ASP30       0.1436
     50  CG         8.4470   26.6730    0.4190 C.2    30  ASP30       0.3671
     51  OD1        8.8550   27.3900    1.3540 O.co2  30  ASP30      -0.2456
     52  OD2        7.2370   26.5050    0.1700 O.co2  30  ASP30      -0.2456
     53  N         13.8530   24.6950   -3.3190 N.3    32  VAL32      -0.1245
     54  CA        14.9360   25.6720   -3.3340 C.3    32  VAL32       0.1561
     55  C         16.0580   25.1440   -4.2120 C.2    32  VAL32       0.2260
     56  O         16.5610   24.0430   -3.9950 O.2    32  VAL32      -0.2867
     57  CB        15.5110   25.9220   -1.9170 C.3    32  VAL32       0.0252
     58  CG1       16.4990   27.0960   -1.9570 C.3    32  VAL32       0.0019
     59  CG2       14.3910   26.2040   -0.9310 C.3    32  VAL32       0.0019
     60  N         12.8360   31.3330    4.6500 N.3    47  ILE47      -0.1231
     61  CA        12.5600   29.9180    4.8610 C.3    47  ILE47       0.1692
     62  C         13.3690   29.3820    6.0340 C.2    47  ILE47       0.2593
     63  O         14.5020   29.8000    6.2670 O.2    47  ILE47      -0.2718
     64  CB        12.8610   29.0600    3.6000 C.3    47  ILE47       0.0266
     65  CG1       14.2990   29.2360    3.1630 C.3    47  ILE47       0.0019
     66  CG2       11.8960   29.4290    2.4830 C.3    47  ILE47       0.0020
     67  CD1       14.7070   28.3270    2.0150 C.3    47  ILE47       0.0001
     68  N         12.7680   28.4600    6.7760 N.am   48  GLY48      -0.1942
     69  CA        13.4380   27.8810    7.9200 C.3    48  GLY48       0.2014
     70  C         14.0590   26.5460    7.5770 C.2    48  GLY48       0.2639
     71  O         13.4430   25.7140    6.9120 O.2    48  GLY48      -0.2714
     72  N         15.2900   26.3480    8.0310 N.am   49  GLY49      -0.1939
     73  CA        15.9850   25.1060    7.7730 C.3    49  GLY49       0.2014
     74  C         16.5450   24.5310    9.0590 C.2    49  GLY49       0.2638
     75  O         16.2610   25.0160   10.1560 O.2    49  GLY49      -0.2714
     76  N         17.3570   23.4940    8.9190 N.am   50  ILE50      -0.1977
     77  CA        17.9520   22.8320   10.0640 C.3    50  ILE50       0.1596
     78  C         18.8090   23.7720   10.9220 C.2    50  ILE50       0.2287
     79  O         18.8240   23.6560   12.1480 O.2    50  ILE50      -0.2864
     80  CB        18.7900   21.6070    9.5970 C.3    50  ILE50       0.0276
     81  CG1       19.1170   20.7220   10.7790 C.3    50  ILE50       0.0022
     82  CG2       20.0500   22.0610    8.8720 C.3    50  ILE50       0.0022
     83  CD1       17.9110   19.9810   11.3110 C.3    50  ILE50       0.0001
     84  N         22.5140   23.5450    0.1630 N.3    81  PRO81      -0.2102
     85  CA        23.5180   22.4900   -0.0190 C.3    81  PRO81       0.1504
     86  C         23.3170   21.6710   -1.2890 C.2    81  PRO81       0.2575
     87  O         24.2810   21.2530   -1.9260 O.2    81  PRO81      -0.2718
     88  CB        23.3530   21.6440    1.2230 C.3    81  PRO81       0.0282
     89  CG        22.9190   22.6260    2.2440 C.3    81  PRO81       0.0208
     90  CD        21.9090   23.4570    1.5020 C.3    81  PRO81       0.0893
     91  N         22.0550   21.4410   -1.6390 N.am   82  VAL82      -0.1980
     92  CA        21.6870   20.6710   -2.8230 C.3    82  VAL82       0.1595
     93  C         20.3880   21.2380   -3.3860 C.2    82  VAL82       0.2287
     94  O         19.7170   22.0260   -2.7210 O.2    82  VAL82      -0.2864
     95  CB        21.4290   19.1820   -2.4840 C.3    82  VAL82       0.0276
     96  CG1       22.6870   18.5340   -1.9150 C.3    82  VAL82       0.0022
     97  CG2       20.2730   19.0680   -1.4910 C.3    82  VAL82       0.0022
     98  N         16.7740   21.1970   -3.8570 N.3    84  ILE84      -0.1245
     99  CA        15.7110   20.5740   -3.0810 C.3    84  ILE84       0.1561
    100  C         14.3390   20.6780   -3.7310 C.2    84  ILE84       0.2260
    101  O         13.8690   21.7770   -4.0130 O.2    84  ILE84      -0.2867
    102  CB        15.6150   21.2300   -1.6760 C.3    84  ILE84       0.0252
    103  CG1       16.9060   20.9750   -0.8830 C.3    84  ILE84       0.0019
    104  CG2       14.4060   20.6880   -0.9200 C.3    84  ILE84       0.0019
    105  CD1       16.9800   21.7460    0.4240 C.3    84  ILE84       0.0001
@<TRIPOS>BOND
     1    12    13    1
     2    55    56    2
     3    55    54    1
     4    13    14    1
     5    13    16    1
     6   101   100    2
     7    98    99    1
     8    14    15    2
     9     4     3    2
    10   100    99    1
    11    93    92    1
    12    93    94    2
    13    54    53    1
    14    54    57    1
    15    99   102    1
    16    16    17    1
    17    92    95    1
    18    92    91    1
    19     3     2    1
    20    95    96    1
    21    95    97    1
    22    58    57    1
    23    87    86    2
    24    57    59    1
    25    18    17    1
    26   102   104    1
    27   102   103    1
    28    91    86   am
    29    17    19    1
    30     5     2    1
    31     5     6    1
    32     2     1    1
    33    20    21    1
    34    47    48    2
    35    47    46    1
    36    86    85    1
    37   103   105    1
    38    46    49    1
    39    46    45    1
    40     7     6    1
    41     7     8    1
    42    49    50    1
    43    21    24    1
    44    21    22    1
    45    85    84    1
    46    85    88    1
    47    11     9    1
    48    40    39    2
    49    24    25    1
    50    84    90    1
    51    52    50   ar
    52    50    51   ar
    53    45    39   am
    54    22    23    2
    55     8     9    2
    56    39    38    1
    57     9    10    1
    58    88    89    1
    59    35    34    2
    60    25    26   ar
    61    25    27   ar
    62    90    89    1
    63    36    33    1
    64    67    65    1
    65    34    33    1
    66    34    37   am
    67    38    37    1
    68    38    41    1
    69    66    64    1
    70    33    32    1
    71    65    64    1
    72    32    30   am
    73    41    42    1
    74    64    61    1
    75    28    29    1
    76    30    29    1
    77    30    31    2
    78    42    44   ar
    79    42    43   ar
    80    60    61    1
    81    61    62    1
    82    62    63    2
    83    62    68   am
    84    68    69    1
    85    71    70    2
    86    70    69    1
    87    70    72   am
    88    73    72    1
    89    73    74    1
    90    82    80    1
    91    76    74   am
    92    76    77    1
    93    74    75    2
    94    80    77    1
    95    80    81    1
    96    77    78    1
    97    81    83    1
    98    78    79    2
