@<TRIPOS>MOLECULE
tmp/2bbdD03.pdb
 74 70 0 0 0
SMALL
GASTEIGER

@<TRIPOS>ATOM
      1  N        214.0490   -3.7260   38.3880 N.3    54  ALA54      -0.1231
      2  CA       213.3940   -3.2580   37.1700 C.3    54  ALA54       0.1679
      3  C        213.7300   -4.3160   36.1080 C.2    54  ALA54       0.2434
      4  O        214.8230   -4.8800   36.1310 O.2    54  ALA54      -0.2733
      5  CB       213.9560   -1.9000   36.7780 C.3    54  ALA54       0.0304
      6  N        212.8200   -4.5700   35.1440 N.am   55  PRO55      -0.2729
      7  CA       211.5040   -3.9660   34.9420 C.3    55  PRO55       0.1401
      8  C        210.3410   -4.4390   35.8100 C.2    55  PRO55       0.2269
      9  O        209.1830   -4.1900   35.4670 O.2    55  PRO55      -0.2865
     10  CB       211.2440   -4.2150   33.4620 C.3    55  PRO55       0.0296
     11  CG       211.7830   -5.5780   33.2840 C.3    55  PRO55       0.0237
     12  CD       213.1270   -5.4940   34.0390 C.3    55  PRO55       0.0939
     13  N        206.8600   -6.0470   34.2190 N.3    59  ASN59      -0.1240
     14  CA       207.0110   -7.3050   33.5120 C.3    59  ASN59       0.1653
     15  C        206.1260   -8.4390   34.0450 C.2    59  ASN59       0.2266
     16  O        206.2910   -9.5950   33.6500 O.2    59  ASN59      -0.2867
     17  CB       208.4910   -7.7270   33.4540 C.3    59  ASN59       0.1155
     18  CG       209.0610   -8.1170   34.8120 C.2    59  ASN59       0.2627
     19  OD1      208.4460   -7.8970   35.8550 O.2    59  ASN59      -0.2716
     20  ND2      210.2510   -8.6940   34.7960 N.am   59  ASN59      -0.0877
     21  N        218.9430   -4.2690   27.2600 N.3   215  ILE215     -0.1231
     22  CA       219.0900   -5.2730   28.2930 C.3   215  ILE215      0.1692
     23  C        220.4720   -5.9020   28.2600 C.2   215  ILE215      0.2592
     24  O        220.9020   -6.3990   27.2250 O.2   215  ILE215     -0.2718
     25  CB       218.0460   -6.3960   28.1060 C.3   215  ILE215      0.0266
     26  CG1      216.6400   -5.7900   28.0300 C.3   215  ILE215      0.0019
     27  CG2      218.1500   -7.4000   29.2430 C.3   215  ILE215      0.0020
     28  CD1      216.1780   -5.0980   29.3080 C.3   215  ILE215      0.0001
     29  N        221.1600   -5.8720   29.4010 N.am  216  ASN216     -0.1960
     30  CA       222.4860   -6.4730   29.5420 C.3   216  ASN216      0.1819
     31  C        222.2560   -7.8740   30.1190 C.2   216  ASN216      0.2622
     32  O        221.4320   -8.0460   31.0190 O.2   216  ASN216     -0.2715
     33  CB       223.3410   -5.6200   30.4890 C.3   216  ASN216      0.1195
     34  CG       224.6950   -6.2300   30.7610 C.2   216  ASN216      0.2630
     35  OD1      224.8030   -7.2510   31.4360 O.2   216  ASN216     -0.2716
     36  ND2      225.7400   -5.6100   30.2320 N.am  216  ASN216     -0.0877
     37  N        222.9700   -8.8760   29.6120 N.am  217  SER217     -0.1950
     38  CA       222.7650  -10.2480   30.0840 C.3   217  SER217      0.1924
     39  C        222.9760  -10.4580   31.5810 C.2   217  SER217      0.2314
     40  O        222.3630  -11.3420   32.1700 O.2   217  SER217     -0.2863
     41  CB       223.6340  -11.2320   29.2910 C.3   217  SER217      0.2116
     42  OG       225.0130  -10.9670   29.4470 O.3   217  SER217     -0.2180
     43  N        220.8340   -6.7590   33.3440 N.3   220  GLY220     -0.1210
     44  CA       219.4270   -6.5910   33.0390 C.3   220  GLY220      0.1956
     45  C        219.2630   -5.2080   32.4250 C.2   220  GLY220      0.2611
     46  O        220.1270   -4.7570   31.6690 O.2   220  GLY220     -0.2717
     47  N        218.1860   -4.5120   32.7630 N.am  221  ILE221     -0.1979
     48  CA       217.9610   -3.1830   32.2050 C.3   221  ILE221      0.1595
     49  C        218.6850   -2.0890   33.0090 C.2   221  ILE221      0.2287
     50  O        218.7410   -0.9210   32.6110 O.2   221  ILE221     -0.2864
     51  CB       216.4510   -2.8820   32.1360 C.3   221  ILE221      0.0276
     52  CG1      216.2040   -1.6840   31.2180 C.3   221  ILE221      0.0022
     53  CG2      215.8940   -2.6340   33.5390 C.3   221  ILE221      0.0022
     54  CD1      214.7360   -1.4180   30.9770 C.3   221  ILE221      0.0001
     55  N        220.6520   -6.8510   23.9820 N.3   300  ASN300     -0.1240
     56  CA       219.4400   -6.9400   23.1780 C.3   300  ASN300      0.1653
     57  C        218.7970   -5.5580   23.2850 C.2   300  ASN300      0.2266
     58  O        218.7570   -4.9670   24.3720 O.2   300  ASN300     -0.2867
     59  CB       218.4990   -8.0190   23.7180 C.3   300  ASN300      0.1155
     60  CG       219.0530   -9.4170   23.5290 C.2   300  ASN300      0.2627
     61  OD1      219.8420   -9.6640   22.6120 O.2   300  ASN300     -0.2716
     62  ND2      218.6350  -10.3420   24.3840 N.am  300  ASN300     -0.0877
     63  N        215.4470   -2.9500   22.5760 N.3   302  TYR302     -0.1241
     64  CA       214.0010   -2.8950   22.4240 C.3   302  TYR302      0.1605
     65  C        213.5550   -1.4880   22.0940 C.2   302  TYR302      0.2264
     66  O        213.8940   -0.5330   22.7940 O.2   302  TYR302     -0.2867
     67  CB       213.3210   -3.3800   23.6990 C.3   302  TYR302      0.0534
     68  CG       213.6560   -4.8150   23.9910 C.ar  302  TYR302     -0.0201
     69  CD1      212.9420   -5.8570   23.3920 C.ar  302  TYR302     -0.0009
     70  CD2      214.7460   -5.1370   24.7910 C.ar  302  TYR302     -0.0009
     71  CE1      213.3140   -7.1820   23.5810 C.ar  302  TYR302      0.0417
     72  CE2      215.1290   -6.4570   24.9830 C.ar  302  TYR302      0.0417
     73  CZ       214.4120   -7.4750   24.3740 C.ar  302  TYR302      0.1957
     74  OH       214.8290   -8.7730   24.5420 O.3   302  TYR302     -0.2866
@<TRIPOS>BOND
     1    65    64    1
     2    65    66    2
     3    64    63    1
     4    64    67    1
     5    61    60    2
     6    56    57    1
     7    56    59    1
     8    56    55    1
     9    57    58    2
    10    69    71   ar
    11    69    68   ar
    12    60    59    1
    13    60    62   am
    14    71    73   ar
    15    67    68    1
    16    68    70   ar
    17    73    74    1
    18    73    72   ar
    19    70    72   ar
    20    24    23    2
    21    21    22    1
    22    26    25    1
    23    26    28    1
    24    25    22    1
    25    25    27    1
    26    23    22    1
    27    23    29   am
    28    41    42    1
    29    41    38    1
    30    29    30    1
    31    30    31    1
    32    30    33    1
    33    37    38    1
    34    37    31   am
    35    38    39    1
    36    31    32    2
    37    36    34   am
    38    33    34    1
    39    34    35    2
    40    54    52    1
    41    52    51    1
    42    39    40    2
    43    46    45    2
    44    51    48    1
    45    51    53    1
    46    48    47    1
    47    48    49    1
    48    45    47   am
    49    45    44    1
    50    50    49    2
    51    44    43    1
    52    11    10    1
    53    11    12    1
    54    17    14    1
    55    17    18    1
    56    10     7    1
    57    14    15    1
    58    14    13    1
    59    16    15    2
    60    12     6    1
    61    20    18   am
    62    18    19    2
    63     7     6    1
    64     7     8    1
    65     6     3   am
    66     9     8    2
    67     3     4    2
    68     3     2    1
    69     5     2    1
    70     2     1    1
