@<TRIPOS>MOLECULE
tmp/2bbdC03.pdb
 88 82 0 0 0
SMALL
GASTEIGER

@<TRIPOS>ATOM
      1  N         82.8940   22.1120    9.2360 N.3    75  TYR75      -0.1241
      2  CA        84.1110   22.0030   10.0370 C.3    75  TYR75       0.1605
      3  C         84.4970   23.3280   10.7100 C.2    75  TYR75       0.2264
      4  O         84.4760   24.3900   10.0900 O.2    75  TYR75      -0.2867
      5  CB        85.2910   21.5430    9.1680 C.3    75  TYR75       0.0534
      6  CG        85.3720   20.0450    8.9300 C.ar   75  TYR75      -0.0201
      7  CD1       86.2920   19.2580    9.6240 C.ar   75  TYR75      -0.0009
      8  CD2       84.5390   19.4160    7.9980 C.ar   75  TYR75      -0.0009
      9  CE1       86.3860   17.8770    9.3910 C.ar   75  TYR75       0.0417
     10  CE2       84.6200   18.0400    7.7630 C.ar   75  TYR75       0.0417
     11  CZ        85.5420   17.2790    8.4580 C.ar   75  TYR75       0.1957
     12  OH        85.6160   15.9230    8.2370 O.3    75  TYR75      -0.2866
     13  N         86.7510   15.1200    5.6210 N.3   117  ASP117     -0.1239
     14  CA        85.8370   14.1110    5.1200 C.3   117  ASP117      0.1674
     15  C         84.4450   14.7390    5.0690 C.2   117  ASP117      0.2266
     16  O         83.8800   15.0880    6.1050 O.2   117  ASP117     -0.2867
     17  CB        85.8400   12.8990    6.0560 C.3   117  ASP117      0.1410
     18  CG        84.8310   11.8420    5.6460 C.2   117  ASP117      0.3668
     19  OD1       84.1060   12.0570    4.6520 O.co2 117  ASP117     -0.2456
     20  OD2       84.7580   10.7920    6.3240 O.co2 117  ASP117     -0.2456
     21  N         81.8190   13.1680    3.7240 N.3   119  ALA119     -0.1245
     22  CA        80.8920   12.0710    3.4740 C.3   119  ALA119      0.1562
     23  C         80.6610   12.1320    1.9710 C.2   119  ALA119      0.2260
     24  O         81.5620   11.8300    1.1900 O.2   119  ALA119     -0.2867
     25  CB        79.5870   12.2930    4.2360 C.3   119  ALA119      0.0290
     26  N         74.2060   12.7400    4.4650 N.3   177  VAL177     -0.1245
     27  CA        74.8260   12.6760    5.7850 C.3   177  VAL177      0.1561
     28  C         75.7570   13.8820    5.8600 C.2   177  VAL177      0.2260
     29  O         76.7890   13.9200    5.1850 O.2   177  VAL177     -0.2867
     30  CB        75.6780   11.4010    5.9640 C.3   177  VAL177      0.0252
     31  CG1       76.4670   11.4840    7.2650 C.3   177  VAL177      0.0019
     32  CG2       74.7830   10.1700    5.9670 C.3   177  VAL177      0.0019
     33  N         78.4810   16.2260    7.6410 N.3   179  PRO179     -0.2116
     34  CA        79.4920   16.1620    8.6910 C.3   179  PRO179      0.1372
     35  C         79.3620   17.3950    9.5730 C.2   179  PRO179      0.2244
     36  O         78.9830   18.4760    9.1020 O.2   179  PRO179     -0.2868
     37  CB        80.7960   16.1520    7.9080 C.3   179  PRO179      0.0268
     38  CG        80.4670   16.9940    6.7260 C.3   179  PRO179      0.0207
     39  CD        79.1020   16.4890    6.3320 C.3   179  PRO179      0.0892
     40  N         81.9840   18.5000   12.2500 N.3   181  VAL181     -0.1245
     41  CA        83.2240   18.3490   12.9950 C.3   181  VAL181      0.1561
     42  C         83.5860   19.6740   13.6660 C.2   181  VAL181      0.2260
     43  O         84.1380   20.5790   13.0300 O.2   181  VAL181     -0.2867
     44  CB        84.3560   17.9050   12.0560 C.3   181  VAL181      0.0252
     45  CG1       85.5860   17.5410   12.8580 C.3   181  VAL181      0.0019
     46  CG2       83.8930   16.7120   11.2230 C.3   181  VAL181      0.0019
     47  N         80.3850   10.0690   16.6520 N.3   208  LYS208     -0.1245
     48  CA        81.1520    8.9220   16.2220 C.3   208  LYS208      0.1561
     49  C         82.4560    8.7960   16.9910 C.2   208  LYS208      0.2260
     50  O         82.7300    7.7710   17.6240 O.2   208  LYS208     -0.2867
     51  CB        81.4660    9.0440   14.7300 C.3   208  LYS208      0.0271
     52  CG        82.4220    7.9850   14.2220 C.3   208  LYS208      0.0035
     53  CD        82.6780    8.1340   12.7370 C.3   208  LYS208      0.0206
     54  CE        83.6570    7.0840   12.2480 C.3   208  LYS208      0.1093
     55  NZ        84.0640    7.3350   10.8370 N.3   208  LYS208     -0.1314
     56  N         77.2570    4.3940   16.7510 N.3   278  ASP278     -0.1239
     57  CA        77.6030    5.7670   17.1060 C.3   278  ASP278      0.1674
     58  C         76.5820    6.3320   18.0800 C.2   278  ASP278      0.2266
     59  O         75.4200    5.9270   18.0730 O.2   278  ASP278     -0.2867
     60  CB        77.6370    6.6630   15.8640 C.3   278  ASP278      0.1410
     61  CG        78.6970    6.2490   14.8670 C.2   278  ASP278      0.3668
     62  OD1       79.6650    5.5750   15.2670 O.co2 278  ASP278     -0.2456
     63  OD2       78.5690    6.6210   13.6810 O.co2 278  ASP278     -0.2456
     64  N         84.0150   14.5100   16.1440 N.3   306  VAL306     -0.1231
     65  CA        83.7750   14.0660   14.7780 C.3   306  VAL306      0.1692
     66  C         82.3620   13.5090   14.8010 C.2   306  VAL306      0.2593
     67  O         82.1410   12.3540   15.1840 O.2   306  VAL306     -0.2718
     68  CB        84.7470   12.9560   14.3200 C.3   306  VAL306      0.0266
     69  CG1       84.3780   12.5050   12.9130 C.3   306  VAL306      0.0020
     70  CG2       86.1820   13.4660   14.3360 C.3   306  VAL306      0.0020
     71  N         81.4050   14.3540   14.4330 N.am  307  SER307     -0.1938
     72  CA        80.0010   13.9630   14.4060 C.3   307  SER307      0.2055
     73  C         79.3780   14.2440   13.0380 C.2   307  SER307      0.2643
     74  O         80.0480   14.7190   12.1160 O.2   307  SER307     -0.2714
     75  CB        79.2170   14.7240   15.4770 C.3   307  SER307      0.2130
     76  OG        79.7720   14.5240   16.7630 O.3   307  SER307     -0.2179
     77  N         78.0920   13.9380   12.9190 N.am  308  TYR308     -0.1973
     78  CA        77.3640   14.1730   11.6810 C.3   308  TYR308      0.1639
     79  C         75.8820   14.3310   11.9440 C.2   308  TYR308      0.2290
     80  O         75.3820   13.9700   13.0070 O.2   308  TYR308     -0.2864
     81  CB        77.6050   13.0390   10.6760 C.3   308  TYR308      0.0560
     82  CG        77.3160   11.6500   11.2020 C.ar  308  TYR308     -0.0198
     83  CD1       78.2400   10.9820   12.0040 C.ar  308  TYR308     -0.0009
     84  CD2       76.1250   11.0000   10.8890 C.ar  308  TYR308     -0.0009
     85  CE1       77.9860    9.7040   12.4830 C.ar  308  TYR308      0.0417
     86  CE2       75.8610    9.7130   11.3650 C.ar  308  TYR308      0.0417
     87  CZ        76.7960    9.0760   12.1610 C.ar  308  TYR308      0.1957
     88  OH        76.5390    7.8190   12.6540 O.3   308  TYR308     -0.2866
@<TRIPOS>BOND
     1    24    23    2
     2    23    22    1
     3    22    21    1
     4    22    25    1
     5    26    27    1
     6    19    18   ar
     7    15    14    1
     8    15    16    2
     9    14    13    1
    10    14    17    1
    11    29    28    2
    12    18    17    1
    13    18    20   ar
    14    27    28    1
    15    27    30    1
    16    30    32    1
    17    30    31    1
    18    39    38    1
    19    39    33    1
    20    38    37    1
    21    33    34    1
    22    10     8   ar
    23    10    11   ar
    24    37    34    1
    25     8     6   ar
    26    12    11    1
    27    11     9   ar
    28    34    35    1
    29     6     5    1
    30     6     7   ar
    31    36    35    2
    32     5     2    1
    33     1     2    1
    34     9     7   ar
    35     2     3    1
    36     4     3    2
    37    81    82    1
    38    81    78    1
    39    55    54    1
    40    84    82   ar
    41    84    86   ar
    42    82    83   ar
    43    46    44    1
    44    86    87   ar
    45    78    79    1
    46    78    77    1
    47    79    80    2
    48    83    85   ar
    49    44    45    1
    50    44    41    1
    51    74    73    2
    52    87    85   ar
    53    87    88    1
    54    54    53    1
    55    40    41    1
    56    53    52    1
    57    69    68    1
    58    77    73   am
    59    41    42    1
    60    43    42    2
    61    73    72    1
    62    63    61   ar
    63    52    51    1
    64    68    70    1
    65    68    65    1
    66    72    71    1
    67    72    75    1
    68    71    66   am
    69    51    48    1
    70    65    66    1
    71    65    64    1
    72    66    67    2
    73    61    62   ar
    74    61    60    1
    75    75    76    1
    76    60    57    1
    77    48    47    1
    78    48    49    1
    79    56    57    1
    80    49    50    2
    81    57    58    1
    82    59    58    2
