@<TRIPOS>MOLECULE
tmp/2bbhA03.pdb
 98 94 0 0 0
SMALL
GASTEIGER

@<TRIPOS>ATOM
      1  N         26.9420   32.5330   10.3840 N.3   154  TYR154     -0.1241
      2  CA        28.3520   32.4170    9.9740 C.3   154  TYR154      0.1605
      3  C         29.2750   32.1380   11.1210 C.2   154  TYR154      0.2264
      4  O         30.1930   31.3200   10.9850 O.2   154  TYR154     -0.2867
      5  CB        28.8370   33.6670    9.2020 C.3   154  TYR154      0.0534
      6  CG        27.9660   33.9760    8.0170 C.ar  154  TYR154     -0.0201
      7  CD1       27.4460   32.9620    7.2090 C.ar  154  TYR154     -0.0009
      8  CD2       27.6710   35.3090    7.6780 C.ar  154  TYR154     -0.0009
      9  CE1       26.6280   33.2710    6.1350 C.ar  154  TYR154      0.0417
     10  CE2       26.8710   35.6170    6.6050 C.ar  154  TYR154      0.0417
     11  CZ        26.3590   34.6310    5.8400 C.ar  154  TYR154      0.1957
     12  OH        25.5590   34.9640    4.7530 O.3   154  TYR154     -0.2866
     13  N         29.0590   28.4620   12.1820 N.3   157  ILE157     -0.1231
     14  CA        29.7240   27.6040   11.1920 C.3   157  ILE157      0.1692
     15  C         31.2680   27.7480   11.3130 C.2   157  ILE157      0.2592
     16  O         32.0360   26.7590   11.3090 O.2   157  ILE157     -0.2718
     17  CB        29.2230   27.9420    9.7950 C.3   157  ILE157      0.0266
     18  CG1       27.7260   27.5920    9.6620 C.3   157  ILE157      0.0019
     19  CG2       30.0670   27.1860    8.7710 C.3   157  ILE157      0.0020
     20  CD1       27.0260   28.1550    8.4290 C.3   157  ILE157      0.0001
     21  N         31.7190   28.9920   11.4710 N.am  158  ASP158     -0.1974
     22  CA        33.1480   29.2570   11.6820 C.3   158  ASP158      0.1709
     23  C         33.6770   28.4880   12.9130 C.2   158  ASP158      0.2293
     24  O         34.8060   27.9430   12.8690 O.2   158  ASP158     -0.2864
     25  CB        33.3740   30.7750   11.8510 C.3   158  ASP158      0.1436
     26  CG        34.8180   31.1340   12.1020 C.2   158  ASP158      0.3671
     27  OD1       35.6420   31.0030   11.1570 O.co2 158  ASP158     -0.2456
     28  OD2       35.0820   31.6460   13.2120 O.co2 158  ASP158     -0.2456
     29  N         34.1780   24.9390   11.8150 N.3   161  VAL161     -0.1231
     30  CA        35.3980   24.8860   10.9650 C.3   161  VAL161      0.1692
     31  C         36.6780   24.8820   11.8210 C.2   161  VAL161      0.2592
     32  O         37.5770   24.0610   11.6010 O.2   161  VAL161     -0.2718
     33  CB        35.4320   26.0210    9.8960 C.3   161  VAL161      0.0266
     34  CG1       36.7990   26.0380    9.1110 C.3   161  VAL161      0.0020
     35  CG2       34.2320   25.8230    8.8940 C.3   161  VAL161      0.0020
     36  N         36.7380   25.7980   12.7890 N.am  162  ASP162     -0.1974
     37  CA        37.8800   25.8970   13.6950 C.3   162  ASP162      0.1709
     38  C         38.0800   24.5650   14.4380 C.2   162  ASP162      0.2293
     39  O         39.2070   24.1080   14.5830 O.2   162  ASP162     -0.2864
     40  CB        37.6720   27.0400   14.6940 C.3   162  ASP162      0.1436
     41  CG        38.0010   28.4260   14.1140 C.2   162  ASP162      0.3671
     42  OD1       38.3920   28.5650   12.9450 O.co2 162  ASP162     -0.2456
     43  OD2       37.8850   29.4050   14.8680 O.co2 162  ASP162     -0.2456
     44  N         39.6910   21.9780   12.1060 N.3   165  PHE165     -0.1227
     45  CA        41.1080   22.2720   11.8580 C.3   165  PHE165      0.1736
     46  C         41.9550   21.8710   13.0630 C.2   165  PHE165      0.2595
     47  O         43.0480   21.3290   12.8860 O.2   165  PHE165     -0.2718
     48  CB        41.3410   23.7460   11.4570 C.3   165  PHE165      0.0547
     49  CG        41.0930   24.0430    9.9840 C.ar  165  PHE165     -0.0202
     50  CD1       39.9150   23.6420    9.3500 C.ar  165  PHE165     -0.0042
     51  CD2       42.0220   24.7860    9.2520 C.ar  165  PHE165     -0.0042
     52  CE1       39.6690   23.9340    7.9970 C.ar  165  PHE165     -0.0003
     53  CE2       41.7890   25.0980    7.9010 C.ar  165  PHE165     -0.0003
     54  CZ        40.6010   24.6600    7.2720 C.ar  165  PHE165     -0.0000
     55  N         41.4570   22.1170   14.2670 N.am  166  VAL166     -0.1980
     56  CA        42.1410   21.7150   15.5100 C.3   166  VAL166      0.1595
     57  C         42.2320   20.1840   15.5720 C.2   166  VAL166      0.2287
     58  O         43.2870   19.6320   15.8940 O.2   166  VAL166     -0.2864
     59  CB        41.4310   22.2740   16.7790 C.3   166  VAL166      0.0276
     60  CG1       41.8950   21.5550   18.0780 C.3   166  VAL166      0.0022
     61  CG2       41.6310   23.7870   16.8910 C.3   166  VAL166      0.0022
     62  N         44.8080   18.7310   13.2150 N.3   169  GLU169     -0.1245
     63  CA        46.1130   19.0350   13.7550 C.3   169  GLU169      0.1567
     64  C         46.4710   17.9990   14.8250 C.2   169  GLU169      0.2260
     65  O         47.6070   17.5060   14.8680 O.2   169  GLU169     -0.2867
     66  CB        46.0670   20.4370   14.3260 C.3   169  GLU169      0.0388
     67  CG        47.3560   21.0470   14.7510 C.3   169  GLU169      0.1160
     68  CD        47.1340   22.5150   15.1170 C.2   169  GLU169      0.3649
     69  OE1       47.2180   22.8580   16.3190 O.co2 169  GLU169     -0.2457
     70  OE2       46.8040   23.3120   14.2000 O.co2 169  GLU169     -0.2457
     71  N         36.9310   23.8940    1.5350 N.3   208  LEU208     -0.1245
     72  CA        37.1970   25.2560    1.9960 C.3   208  LEU208      0.1561
     73  C         38.3720   25.8980    1.2630 C.2   208  LEU208      0.2260
     74  O         38.2900   27.0630    0.9040 O.2   208  LEU208     -0.2867
     75  CB        37.4070   25.3130    3.5140 C.3   208  LEU208      0.0270
     76  CG        36.2270   24.8700    4.3940 C.3   208  LEU208      0.0019
     77  CD1       36.6770   24.7570    5.8640 C.3   208  LEU208      0.0001
     78  CD2       35.0090   25.8060    4.2560 C.3   208  LEU208      0.0001
     79  N         37.3120   26.9620   -2.2690 N.3   211  LEU211     -0.1231
     80  CA        36.4970   28.2160   -2.2790 C.3   211  LEU211      0.1693
     81  C         37.3760   29.4410   -2.0240 C.2   211  LEU211      0.2592
     82  O         37.2650   30.4550   -2.6810 O.2   211  LEU211     -0.2718
     83  CB        35.3870   28.1370   -1.2310 C.3   211  LEU211      0.0284
     84  CG        34.2550   27.1890   -1.6090 C.3   211  LEU211      0.0019
     85  CD1       33.4070   26.8530   -0.3860 C.3   211  LEU211      0.0001
     86  CD2       33.3550   27.8100   -2.7040 C.3   211  LEU211      0.0001
     87  N         38.2480   29.3010   -1.0430 N.am  212  TYR212     -0.1976
     88  CA        39.1620   30.3720   -0.6320 C.3   212  TYR212      0.1639
     89  C         40.1050   30.8060   -1.7420 C.2   212  TYR212      0.2290
     90  O         40.3520   31.9950   -1.9130 O.2   212  TYR212     -0.2864
     91  CB        39.9430   29.8720    0.5660 C.3   212  TYR212      0.0560
     92  CG        40.9180   30.8720    1.1160 C.ar  212  TYR212     -0.0198
     93  CD1       40.5140   31.8190    2.0410 C.ar  212  TYR212     -0.0009
     94  CD2       42.2530   30.8450    0.7110 C.ar  212  TYR212     -0.0009
     95  CE1       41.4330   32.7440    2.5610 C.ar  212  TYR212      0.0417
     96  CE2       43.1630   31.7400    1.2050 C.ar  212  TYR212      0.0417
     97  CZ        42.7490   32.6820    2.1250 C.ar  212  TYR212      0.1957
     98  OH        43.6830   33.5570    2.5980 O.3   212  TYR212     -0.2866
@<TRIPOS>BOND
     1    86    84    1
     2    82    81    2
     3    80    79    1
     4    80    81    1
     5    80    83    1
     6    81    87   am
     7    90    89    2
     8    89    88    1
     9    84    83    1
    10    84    85    1
    11    87    88    1
    12    88    91    1
    13    91    92    1
    14    94    92   ar
    15    94    96   ar
    16    74    73    2
    17    92    93   ar
    18    96    97   ar
    19    73    72    1
    20    71    72    1
    21    72    75    1
    22    93    95   ar
    23    97    95   ar
    24    97    98    1
    25    75    76    1
    26    78    76    1
    27    76    77    1
    28    12    11    1
    29    11     9   ar
    30    11    10   ar
    31     9     7   ar
    32    10     8   ar
    33     7     6   ar
    34    54    53   ar
    35    54    52   ar
    36     8     6   ar
    37    53    51   ar
    38    52    50   ar
    39     6     5    1
    40    20    18    1
    41    19    17    1
    42    35    33    1
    43    34    33    1
    44     5     2    1
    45    51    49   ar
    46    50    49   ar
    47    18    17    1
    48    17    14    1
    49    33    30    1
    50     2     1    1
    51     2     3    1
    52    49    48    1
    53    30    29    1
    54    30    31    1
    55     4     3    2
    56    27    26   ar
    57    14    15    1
    58    14    13    1
    59    16    15    2
    60    15    21   am
    61    48    45    1
    62    21    22    1
    63    32    31    2
    64    22    25    1
    65    22    23    1
    66    31    36   am
    67    25    26    1
    68    45    44    1
    69    45    46    1
    70    26    28   ar
    71    36    37    1
    72    24    23    2
    73    47    46    2
    74    42    41   ar
    75    46    55   am
    76    62    63    1
    77    37    38    1
    78    37    40    1
    79    63    66    1
    80    63    64    1
    81    41    40    1
    82    41    43   ar
    83    70    68   ar
    84    55    56    1
    85    66    67    1
    86    38    39    2
    87    67    68    1
    88    64    65    2
    89    68    69   ar
    90    56    57    1
    91    56    59    1
    92    57    58    2
    93    59    61    1
    94    59    60    1
