@<TRIPOS>MOLECULE
tmp/2bbhA01.pdb
 185 177 0 0 0
SMALL
GASTEIGER

@<TRIPOS>ATOM
      1  N         20.6880    7.5060   17.3570 N.3    10  LYS10      -0.1231
      2  CA        20.8450    6.5970   18.5440 C.3    10  LYS10       0.1693
      3  C         20.8700    7.2760   19.8820 C.2    10  LYS10       0.2592
      4  O         21.0390    6.5720   20.9070 O.2    10  LYS10      -0.2718
      5  CB        22.1880    5.8770   18.5620 C.3    10  LYS10       0.0285
      6  CG        22.9490    5.6790   17.3180 C.3    10  LYS10       0.0035
      7  CD        24.4020    5.4080   17.7180 C.3    10  LYS10       0.0206
      8  CE        25.3120    5.3010   16.5410 C.3    10  LYS10       0.1093
      9  NZ        26.7450    5.3060   16.9990 N.3    10  LYS10      -0.1314
     10  N         20.8410    8.6170   19.9010 N.am   11  TYR11      -0.1976
     11  CA        20.8820    9.3800   21.1660 C.3    11  TYR11       0.1639
     12  C         19.5300    9.7850   21.7220 C.2    11  TYR11       0.2290
     13  O         18.7650   10.5040   21.0660 O.2    11  TYR11      -0.2864
     14  CB        21.8040   10.6200   21.0350 C.3    11  TYR11       0.0560
     15  CG        23.1890   10.2700   20.5380 C.ar   11  TYR11      -0.0198
     16  CD1       24.1120    9.6340   21.3790 C.ar   11  TYR11      -0.0009
     17  CD2       23.5940   10.5800   19.2120 C.ar   11  TYR11      -0.0009
     18  CE1       25.3840    9.3120   20.9480 C.ar   11  TYR11       0.0417
     19  CE2       24.8920   10.2500   18.7630 C.ar   11  TYR11       0.0417
     20  CZ        25.7670    9.6030   19.6420 C.ar   11  TYR11       0.1957
     21  OH        27.0460    9.2760   19.2510 O.3    11  TYR11      -0.2866
     22  N         19.6340   11.2570   10.6430 N.3    80  VAL80      -0.1245
     23  CA        21.0960   11.4210   10.8040 C.3    80  VAL80       0.1561
     24  C         21.9620   11.0080    9.6000 C.2    80  VAL80       0.2260
     25  O         23.1680   11.2250    9.6190 O.2    80  VAL80      -0.2867
     26  CB        21.6310   10.7780   12.1180 C.3    80  VAL80       0.0252
     27  CG1       20.8250   11.2860   13.3310 C.3    80  VAL80       0.0019
     28  CG2       21.6100    9.2520   12.0040 C.3    80  VAL80       0.0019
     29  N         25.8360   16.7890    4.4440 N.3    84  PRO84      -0.2116
     30  CA        25.9280   18.2360    4.7180 C.3    84  PRO84       0.1372
     31  C         25.4000   19.0270    3.4850 C.2    84  PRO84       0.2244
     32  O         25.5900   18.6040    2.3260 O.2    84  PRO84      -0.2868
     33  CB        27.4160   18.4830    4.8920 C.3    84  PRO84       0.0268
     34  CG        28.0170   17.1310    5.3060 C.3    84  PRO84       0.0207
     35  CD        27.1590   16.1230    4.4790 C.3    84  PRO84       0.0892
     36  N         24.8890   19.9530    9.0900 N.3    97  LEU97      -0.1231
     37  CA        26.3040   19.8880    9.4120 C.3    97  LEU97       0.1693
     38  C         26.5800   18.6030   10.1840 C.2    97  LEU97       0.2591
     39  O         25.6600   17.9780   10.7030 O.2    97  LEU97      -0.2718
     40  CB        26.6850   21.0520   10.3680 C.3    97  LEU97       0.0284
     41  CG        26.3830   22.5010    9.9220 C.3    97  LEU97       0.0019
     42  CD1       26.5460   23.4890   11.0910 C.3    97  LEU97       0.0001
     43  CD2       27.2580   22.8720    8.7200 C.3    97  LEU97       0.0001
     44  N         27.8520   18.2310   10.2440 N.am   98  LYS98      -0.1980
     45  CA        28.2460   17.1260   11.1200 C.3    98  LYS98       0.1596
     46  C         29.3090   17.6540   12.0840 C.2    98  LYS98       0.2287
     47  O         30.1810   18.4840   11.7040 O.2    98  LYS98      -0.2864
     48  CB        28.8210   15.9660   10.3300 C.3    98  LYS98       0.0298
     49  CG        27.9360   15.5330    9.0960 C.3    98  LYS98       0.0038
     50  CD        26.6530   14.8370    9.5590 C.3    98  LYS98       0.0206
     51  CE        25.8810   14.3390    8.3220 C.3    98  LYS98       0.1093
     52  NZ        24.8240   13.3490    8.7050 N.3    98  LYS98      -0.1314
     53  N         32.0500   16.4870   15.3830 N.3    99  PHE99      -0.1241
     54  CA        32.6730   15.5310   16.3090 C.3    99  PHE99       0.1605
     55  C         32.6790   16.0030   17.7670 C.2    99  PHE99       0.2264
     56  O         32.8410   17.1980   18.0550 O.2    99  PHE99      -0.2867
     57  CB        34.0770   15.1740   15.8450 C.3    99  PHE99       0.0534
     58  CG        34.0650   14.3070   14.6320 C.ar   99  PHE99      -0.0203
     59  CD1       33.9980   12.9130   14.7640 C.ar   99  PHE99      -0.0042
     60  CD2       33.9980   14.8620   13.3670 C.ar   99  PHE99      -0.0042
     61  CE1       33.9360   12.0910   13.6420 C.ar   99  PHE99      -0.0003
     62  CE2       33.9220   14.0530   12.2300 C.ar   99  PHE99      -0.0003
     63  CZ        33.9030   12.6630   12.3660 C.ar   99  PHE99      -0.0000
     64  N         36.0360    8.9210   18.9520 N.3   106  LEU106     -0.1231
     65  CA        35.3530   10.1510   18.6650 C.3   106  LEU106      0.1693
     66  C         33.9740    9.8800   18.0740 C.2   106  LEU106      0.2592
     67  O         33.8320    9.1650   17.0620 O.2   106  LEU106     -0.2718
     68  CB        36.2240   10.8850   17.6390 C.3   106  LEU106      0.0284
     69  CG        36.4220   12.3890   17.5560 C.3   106  LEU106      0.0019
     70  CD1       37.1900   12.8880   18.7520 C.3   106  LEU106      0.0001
     71  CD2       37.2240   12.6360   16.3190 C.3   106  LEU106      0.0001
     72  N         32.9580   10.4570   18.7060 N.am  107  GLU107     -0.1966
     73  CA        31.5900   10.3390   18.2270 C.3   107  GLU107      0.1733
     74  C         31.3020   11.4710   17.2530 C.2   107  GLU107      0.2617
     75  O         31.9300   12.5360   17.3170 O.2   107  GLU107     -0.2715
     76  CB        30.6170   10.4430   19.3850 C.3   107  GLU107      0.0429
     77  CG        30.6010    9.2870   20.3380 C.3   107  GLU107      0.1163
     78  CD        29.9580    9.7040   21.6330 C.2   107  GLU107      0.3649
     79  OE1       30.4940   10.6470   22.2560 O.co2 107  GLU107     -0.2457
     80  OE2       28.9240    9.1160   22.0190 O.co2 107  GLU107     -0.2457
     81  N         30.3470   11.2120   16.3670 N.am  108  SER108     -0.1936
     82  CA        29.8770   12.1340   15.3350 C.3   108  SER108      0.2055
     83  C         28.3950   12.4390   15.5740 C.2   108  SER108      0.2643
     84  O         27.6250   11.5550   15.9610 O.2   108  SER108     -0.2714
     85  CB        30.0460   11.4830   13.9780 C.3   108  SER108      0.2130
     86  OG        29.5440   12.3250   12.9630 O.3   108  SER108     -0.2179
     87  N         27.9710   13.6840   15.3850 N.am  109  GLU109     -0.1963
     88  CA        26.5570   13.9450   15.5790 C.3   109  GLU109      0.1733
     89  C         26.1220   14.9390   14.5210 C.2   109  GLU109      0.2616
     90  O         26.9370   15.7290   14.0670 O.2   109  GLU109     -0.2715
     91  CB        26.2480   14.4100   17.0120 C.3   109  GLU109      0.0429
     92  CG        25.9930   15.8430   17.2230 C.3   109  GLU109      0.1163
     93  CD        25.6530   16.1700   18.6730 C.2   109  GLU109      0.3649
     94  OE1       24.4920   16.4350   18.9790 O.co2 109  GLU109     -0.2457
     95  OE2       26.5870   16.2570   19.4640 O.co2 109  GLU109     -0.2457
     96  N         24.8700   14.8620   14.1060 N.am  110  GLN110     -0.1977
     97  CA        24.3900   15.8040   13.0890 C.3   110  GLN110      0.1601
     98  C         23.9050   17.0100   13.8260 C.2   110  GLN110      0.2287
     99  O         23.2420   16.9060   14.8520 O.2   110  GLN110     -0.2864
    100  CB        23.2360   15.2160   12.2820 C.3   110  GLN110      0.0394
    101  CG        22.7500   16.0820   11.0850 C.3   110  GLN110      0.0908
    102  CD        21.8910   15.2430   10.1540 C.2   110  GLN110      0.2608
    103  OE1       22.4200   14.4160    9.4100 O.2   110  GLN110     -0.2717
    104  NE2       20.5920   15.4540   10.1880 N.am  110  GLN110     -0.0878
    105  N         29.0590   28.4620   12.1820 N.3   157  ILE157     -0.1245
    106  CA        29.7240   27.6040   11.1920 C.3   157  ILE157      0.1561
    107  C         31.2680   27.7480   11.3130 C.2   157  ILE157      0.2260
    108  O         32.0360   26.7590   11.3090 O.2   157  ILE157     -0.2867
    109  CB        29.2230   27.9420    9.7950 C.3   157  ILE157      0.0252
    110  CG1       27.7260   27.5920    9.6620 C.3   157  ILE157      0.0019
    111  CG2       30.0670   27.1860    8.7710 C.3   157  ILE157      0.0019
    112  CD1       27.0260   28.1550    8.4290 C.3   157  ILE157      0.0001
    113  N         32.6600   25.6700   14.0430 N.3   160  LEU160     -0.1231
    114  CA        32.7570   24.2610   13.6580 C.3   160  LEU160      0.1693
    115  C         33.9520   24.0290   12.7670 C.2   160  LEU160      0.2591
    116  O         34.6970   23.0470   12.9550 O.2   160  LEU160     -0.2718
    117  CB        31.4620   23.7950   12.9620 C.3   160  LEU160      0.0284
    118  CG        31.3140   22.3140   12.5760 C.3   160  LEU160      0.0019
    119  CD1       31.6590   21.3380   13.6950 C.3   160  LEU160      0.0001
    120  CD2       29.8570   22.0660   12.1420 C.3   160  LEU160      0.0001
    121  N         34.1780   24.9390   11.8150 N.am  161  VAL161     -0.1980
    122  CA        35.3980   24.8860   10.9650 C.3   161  VAL161      0.1595
    123  C         36.6780   24.8820   11.8210 C.2   161  VAL161      0.2287
    124  O         37.5770   24.0610   11.6010 O.2   161  VAL161     -0.2864
    125  CB        35.4320   26.0210    9.8960 C.3   161  VAL161      0.0276
    126  CG1       36.7990   26.0380    9.1110 C.3   161  VAL161      0.0022
    127  CG2       34.2320   25.8230    8.8940 C.3   161  VAL161      0.0022
    128  N         37.2120   21.4890   13.4420 N.3   164  TYR164     -0.1241
    129  CA        37.7750   20.5300   12.5010 C.3   164  TYR164      0.1605
    130  C         39.2570   20.7290   12.2490 C.2   164  TYR164      0.2264
    131  O         39.9870   19.7410   12.1300 O.2   164  TYR164     -0.2867
    132  CB        37.0330   20.5170   11.1500 C.3   164  TYR164      0.0534
    133  CG        35.7890   19.6540   11.2220 C.ar  164  TYR164     -0.0201
    134  CD1       34.5220   20.2250   11.3260 C.ar  164  TYR164     -0.0009
    135  CD2       35.8880   18.2410   11.2520 C.ar  164  TYR164     -0.0009
    136  CE1       33.3650   19.4280   11.3840 C.ar  164  TYR164      0.0417
    137  CE2       34.7320   17.4310   11.3260 C.ar  164  TYR164      0.0417
    138  CZ        33.4730   18.0380   11.3990 C.ar  164  TYR164      0.1957
    139  OH        32.3430   17.2490   11.4730 O.3   164  TYR164     -0.2866
    140  N         40.2220    8.1070    9.6560 N.3   197  LEU197     -0.1245
    141  CA        39.4810    9.2360   10.2240 C.3   197  LEU197      0.1561
    142  C         39.9090   10.5390    9.5280 C.2   197  LEU197      0.2260
    143  O         39.0630   11.3600    9.1600 O.2   197  LEU197     -0.2867
    144  CB        39.7030    9.3250   11.7430 C.3   197  LEU197      0.0270
    145  CG        39.2000   10.5140   12.5830 C.3   197  LEU197      0.0019
    146  CD1       37.6530   10.6210   12.6290 C.3   197  LEU197      0.0001
    147  CD2       39.7980   10.4540   13.9940 C.3   197  LEU197      0.0001
    148  N         38.3540   10.9920    6.2330 N.3   200  THR200     -0.1203
    149  CA        36.9590   11.3600    6.3920 C.3   200  THR200      0.1994
    150  C         36.7650   12.8820    6.5130 C.2   200  THR200      0.2617
    151  O         35.8900   13.4580    5.8600 O.2   200  THR200     -0.2717
    152  CB        36.3590   10.6260    7.6230 C.3   200  THR200      0.1784
    153  OG1       36.0610    9.2640    7.2580 O.3   200  THR200     -0.2211
    154  CG2       35.0970   11.2940    8.0870 C.3   200  THR200      0.0376
    155  N         37.5940   13.5000    7.3520 N.am  201  ILE201     -0.1979
    156  CA        37.5830   14.9380    7.6310 C.3   201  ILE201      0.1595
    157  C         38.2360   15.7760    6.5350 C.2   201  ILE201      0.2287
    158  O         37.7790   16.8940    6.2390 O.2   201  ILE201     -0.2864
    159  CB        38.3370   15.2160    8.9590 C.3   201  ILE201      0.0276
    160  CG1       37.6730   14.4460   10.1050 C.3   201  ILE201      0.0022
    161  CG2       38.4280   16.7470    9.2560 C.3   201  ILE201      0.0022
    162  CD1       38.4390   14.5110   11.3910 C.3   201  ILE201      0.0001
    163  N         38.1590   16.1060    3.2890 N.3   203  PRO203     -0.2102
    164  CA        37.3850   16.7850    2.2440 C.3   203  PRO203      0.1504
    165  C         36.8940   18.1780    2.6500 C.2   203  PRO203      0.2575
    166  O         36.7510   19.0460    1.7920 O.2   203  PRO203     -0.2718
    167  CB        36.2020   15.8320    2.0300 C.3   203  PRO203      0.0282
    168  CG        36.8070   14.4840    2.2590 C.3   203  PRO203      0.0208
    169  CD        37.6180   14.7560    3.5230 C.3   203  PRO203      0.0893
    170  N         36.6290   18.3690    3.9410 N.am  204  LEU204     -0.1980
    171  CA        36.2210   19.6940    4.4290 C.3   204  LEU204      0.1596
    172  C         37.3080   20.7090    4.1000 C.2   204  LEU204      0.2287
    173  O         37.0130   21.7790    3.5870 O.2   204  LEU204     -0.2864
    174  CB        35.9390   19.6700    5.9340 C.3   204  LEU204      0.0297
    175  CG        35.5800   21.0580    6.4880 C.3   204  LEU204      0.0022
    176  CD1       34.3580   21.6700    5.7820 C.3   204  LEU204      0.0001
    177  CD2       35.3960   21.0330    8.0470 C.3   204  LEU204      0.0001
    178  N         36.9310   23.8940    1.5350 N.3   208  LEU208     -0.1245
    179  CA        37.1970   25.2560    1.9960 C.3   208  LEU208      0.1561
    180  C         38.3720   25.8980    1.2630 C.2   208  LEU208      0.2260
    181  O         38.2900   27.0630    0.9040 O.2   208  LEU208     -0.2867
    182  CB        37.4070   25.3130    3.5140 C.3   208  LEU208      0.0270
    183  CG        36.2270   24.8700    4.3940 C.3   208  LEU208      0.0019
    184  CD1       36.6770   24.7570    5.8640 C.3   208  LEU208      0.0001
    185  CD2       35.0090   25.8060    4.2560 C.3   208  LEU208      0.0001
@<TRIPOS>BOND
     1   181   180    2
     2   180   179    1
     3   178   179    1
     4   166   165    2
     5   179   182    1
     6   167   164    1
     7   167   168    1
     8   164   165    1
     9   164   163    1
    10   168   169    1
    11    32    31    2
    12   165   170   am
    13   163   169    1
    14    31    30    1
    15   182   183    1
    16   173   172    2
    17   170   171    1
    18   172   171    1
    19   185   183    1
    20   183   184    1
    21   171   174    1
    22    29    35    1
    23    29    30    1
    24    35    34    1
    25    30    33    1
    26    33    34    1
    27   176   175    1
    28   151   150    2
    29   174   175    1
    30   148   149    1
    31   158   157    2
    32   149   150    1
    33   149   152    1
    34   175   177    1
    35   150   155   am
    36   157   156    1
    37   153   152    1
    38   155   156    1
    39   152   154    1
    40   156   159    1
    41    51    52    1
    42    51    50    1
    43   112   110    1
    44    43    41    1
    45   111   109    1
    46   127   125    1
    47   159   161    1
    48   159   160    1
    49    36    37    1
    50    49    50    1
    51    49    48    1
    52   126   125    1
    53   143   142    2
    54   103   102    2
    55    37    38    1
    56    37    40    1
    57   142   141    1
    58    24    25    2
    59    24    23    1
    60   140   141    1
    61   110   109    1
    62   109   106    1
    63   125   122    1
    64    41    40    1
    65    41    42    1
    66   160   162    1
    67   102   104   am
    68   102   101    1
    69    38    44   am
    70    38    39    2
    71   141   144    1
    72    44    45    1
    73    48    45    1
    74    22    23    1
    75    23    26    1
    76   122   121    1
    77   122   123    1
    78   101   100    1
    79    45    46    1
    80   132   133    1
    81   132   129    1
    82   106   107    1
    83   106   105    1
    84   133   135   ar
    85   133   134   ar
    86   135   137   ar
    87   108   107    2
    88   137   138   ar
    89   134   136   ar
    90   136   138   ar
    91   138   139    1
    92   124   123    2
    93    47    46    2
    94   144   145    1
    95   121   115   am
    96    28    26    1
    97    26    27    1
    98   131   130    2
    99   120   118    1
   100    62    63   ar
   101    62    60   ar
   102   130   129    1
   103   100    97    1
   104    63    61   ar
   105   129   128    1
   106   118   117    1
   107   118   119    1
   108   145   146    1
   109   145   147    1
   110   115   116    2
   111   115   114    1
   112   117   114    1
   113    86    85    1
   114    97    98    1
   115    97    96    1
   116    60    58   ar
   117    61    59   ar
   118   114   113    1
   119    98    99    2
   120    85    82    1
   121    90    89    2
   122    96    89   am
   123    89    88    1
   124    58    59   ar
   125    58    57    1
   126    82    83    1
   127    82    81    1
   128    53    54    1
   129    87    83   am
   130    87    88    1
   131    83    84    2
   132    88    91    1
   133    57    54    1
   134    54    55    1
   135    71    69    1
   136    81    74   am
   137     8     9    1
   138     8     7    1
   139    91    92    1
   140    67    66    2
   141    92    93    1
   142    74    75    2
   143    74    73    1
   144     6     7    1
   145     6     5    1
   146     1     2    1
   147    69    68    1
   148    69    70    1
   149    68    65    1
   150    55    56    2
   151    66    65    1
   152    66    72   am
   153    73    72    1
   154    73    76    1
   155     2     5    1
   156     2     3    1
   157    65    64    1
   158    93    94   ar
   159    93    95   ar
   160    19    17   ar
   161    19    20   ar
   162    17    15   ar
   163    21    20    1
   164    76    77    1
   165    20    18   ar
   166     3    10   am
   167     3     4    2
   168    10    11    1
   169    77    78    1
   170    15    14    1
   171    15    16   ar
   172    18    16   ar
   173    14    11    1
   174    13    12    2
   175    11    12    1
   176    78    80   ar
   177    78    79   ar
