@<TRIPOS>MOLECULE
tmp/2bbhA02.pdb
 107 105 0 0 0
SMALL
GASTEIGER

@<TRIPOS>ATOM
      1  N         19.6340   11.2570   10.6430 N.3    80  VAL80      -0.1231
      2  CA        21.0960   11.4210   10.8040 C.3    80  VAL80       0.1692
      3  C         21.9620   11.0080    9.6000 C.2    80  VAL80       0.2592
      4  O         23.1680   11.2250    9.6190 O.2    80  VAL80      -0.2718
      5  CB        21.6310   10.7780   12.1180 C.3    80  VAL80       0.0266
      6  CG1       20.8250   11.2860   13.3310 C.3    80  VAL80       0.0020
      7  CG2       21.6100    9.2520   12.0040 C.3    80  VAL80       0.0020
      8  N         21.3350   10.4810    8.5440 N.am   81  HIS81      -0.1962
      9  CA        22.0460   10.0990    7.3300 C.3    81  HIS81       0.1787
     10  C         22.0460   11.1720    6.2430 C.2    81  HIS81       0.2620
     11  O         22.5100   10.9420    5.1480 O.2    81  HIS81      -0.2715
     12  CB        21.5210    8.7470    6.8340 C.3    81  HIS81       0.0785
     13  CG        21.5250    7.7250    7.9290 C.ar   81  HIS81       0.0821
     14  ND1       22.6820    7.3290    8.5680 N.ar   81  HIS81      -0.2267
     15  CD2       20.5030    7.1060    8.5770 C.ar   81  HIS81       0.1154
     16  CE1       22.3750    6.4550    9.5140 C.ar   81  HIS81       0.1986
     17  NE2       21.0640    6.3110    9.5450 N.ar   81  HIS81      -0.2212
     18  N         21.5220   12.3470    6.5810 N.am   82  GLN82      -0.1963
     19  CA        21.5530   13.4440    5.6210 C.3    82  GLN82       0.1733
     20  C         22.9970   13.8130    5.3260 C.2    82  GLN82       0.2616
     21  O         23.9060   13.6090    6.1250 O.2    82  GLN82      -0.2715
     22  CB        20.8090   14.6610    6.1760 C.3    82  GLN82       0.0408
     23  CG        19.3180   14.4320    6.4230 C.3    82  GLN82       0.0908
     24  CD        18.5370   14.1650    5.1310 C.2    82  GLN82       0.2608
     25  OE1       17.6390   13.2990    5.0870 O.2    82  GLN82      -0.2717
     26  NE2       18.8770   14.9200    4.0690 N.am   82  GLN82      -0.0878
     27  N         23.1940   14.3490    4.1440 N.am   83  ARG83      -0.1964
     28  CA        24.4950   14.8830    3.7520 C.3    83  ARG83       0.1714
     29  C         24.6120   16.3160    4.2090 C.2    83  ARG83       0.2458
     30  O         23.5910   17.0440    4.2710 O.2    83  ARG83      -0.2730
     31  CB        24.5890   14.9140    2.2210 C.3    83  ARG83       0.0347
     32  CG        24.9030   13.5480    1.5530 C.3    83  ARG83       0.0492
     33  CD        23.7060   12.6170    1.7080 C.3    83  ARG83       0.2205
     34  NE        22.4430   13.2320    1.2320 N.pl3  83  ARG83      -0.0865
     35  CZ        21.2360   12.7400    1.4810 C.cat  83  ARG83       0.5346
     36  NH1       21.1190   11.6260    2.2190 N.pl3  83  ARG83       0.1354
     37  NH2       20.1470   13.3350    1.0060 N.pl3  83  ARG83       0.1354
     38  N         25.8360   16.7890    4.4440 N.am   84  PRO84      -0.2716
     39  CA        25.9280   18.2360    4.7180 C.3    84  PRO84       0.1536
     40  C         25.4000   19.0270    3.4850 C.2    84  PRO84       0.2598
     41  O         25.5900   18.6040    2.3260 O.2    84  PRO84      -0.2715
     42  CB        27.4160   18.4830    4.8920 C.3    84  PRO84       0.0310
     43  CG        28.0170   17.1310    5.3060 C.3    84  PRO84       0.0237
     44  CD        27.1590   16.1230    4.4790 C.3    84  PRO84       0.0939
     45  N         24.7150   20.1370    3.7480 N.am   85  LYS85      -0.1978
     46  CA        24.0910   20.9400    2.6900 C.3    85  LYS85       0.1596
     47  C         23.6490   22.3140    3.1570 C.2    85  LYS85       0.2287
     48  O         23.5590   22.5670    4.3490 O.2    85  LYS85      -0.2864
     49  CB        22.8480   20.2310    2.1060 C.3    85  LYS85       0.0298
     50  CG        21.6430   20.1070    3.0200 C.3    85  LYS85       0.0038
     51  CD        20.3950   19.6360    2.1860 C.3    85  LYS85       0.0206
     52  CE        19.2740   19.3310    3.1830 C.3    85  LYS85       0.1093
     53  NZ        18.0130   18.8000    2.4830 N.3    85  LYS85      -0.1314
     54  N         24.8890   19.9530    9.0900 N.3    97  LEU97      -0.1231
     55  CA        26.3040   19.8880    9.4120 C.3    97  LEU97       0.1693
     56  C         26.5800   18.6030   10.1840 C.2    97  LEU97       0.2591
     57  O         25.6600   17.9780   10.7030 O.2    97  LEU97      -0.2718
     58  CB        26.6850   21.0520   10.3680 C.3    97  LEU97       0.0284
     59  CG        26.3830   22.5010    9.9220 C.3    97  LEU97       0.0019
     60  CD1       26.5460   23.4890   11.0910 C.3    97  LEU97       0.0001
     61  CD2       27.2580   22.8720    8.7200 C.3    97  LEU97       0.0001
     62  N         27.8520   18.2310   10.2440 N.am   98  LYS98      -0.1980
     63  CA        28.2460   17.1260   11.1200 C.3    98  LYS98       0.1596
     64  C         29.3090   17.6540   12.0840 C.2    98  LYS98       0.2287
     65  O         30.1810   18.4840   11.7040 O.2    98  LYS98      -0.2864
     66  CB        28.8210   15.9660   10.3300 C.3    98  LYS98       0.0298
     67  CG        27.9360   15.5330    9.0960 C.3    98  LYS98       0.0038
     68  CD        26.6530   14.8370    9.5590 C.3    98  LYS98       0.0206
     69  CE        25.8810   14.3390    8.3220 C.3    98  LYS98       0.1093
     70  NZ        24.8240   13.3490    8.7050 N.3    98  LYS98      -0.1314
     71  N         38.3540   10.9920    6.2330 N.3   200  THR200     -0.1218
     72  CA        36.9590   11.3600    6.3920 C.3   200  THR200      0.1862
     73  C         36.7650   12.8820    6.5130 C.2   200  THR200      0.2287
     74  O         35.8900   13.4580    5.8600 O.2   200  THR200     -0.2866
     75  CB        36.3590   10.6260    7.6230 C.3   200  THR200      0.1770
     76  OG1       36.0610    9.2640    7.2580 O.3   200  THR200     -0.2211
     77  CG2       35.0970   11.2940    8.0870 C.3   200  THR200      0.0375
     78  N         38.1590   16.1060    3.2890 N.3   203  PRO203     -0.2102
     79  CA        37.3850   16.7850    2.2440 C.3   203  PRO203      0.1504
     80  C         36.8940   18.1780    2.6500 C.2   203  PRO203      0.2575
     81  O         36.7510   19.0460    1.7920 O.2   203  PRO203     -0.2718
     82  CB        36.2020   15.8320    2.0300 C.3   203  PRO203      0.0282
     83  CG        36.8070   14.4840    2.2590 C.3   203  PRO203      0.0208
     84  CD        37.6180   14.7560    3.5230 C.3   203  PRO203      0.0893
     85  N         36.6290   18.3690    3.9410 N.am  204  LEU204     -0.1980
     86  CA        36.2210   19.6940    4.4290 C.3   204  LEU204      0.1596
     87  C         37.3080   20.7090    4.1000 C.2   204  LEU204      0.2287
     88  O         37.0130   21.7790    3.5870 O.2   204  LEU204     -0.2864
     89  CB        35.9390   19.6700    5.9340 C.3   204  LEU204      0.0297
     90  CG        35.5800   21.0580    6.4880 C.3   204  LEU204      0.0022
     91  CD1       34.3580   21.6700    5.7820 C.3   204  LEU204      0.0001
     92  CD2       35.3960   21.0330    8.0470 C.3   204  LEU204      0.0001
     93  N         37.3430   21.3680    0.2680 N.3   207  VAL207     -0.1231
     94  CA        36.2390   22.2510   -0.1340 C.3   207  VAL207      0.1692
     95  C         36.5370   23.7000    0.2760 C.2   207  VAL207      0.2591
     96  O         36.4290   24.6320   -0.5340 O.2   207  VAL207     -0.2718
     97  CB        34.8970   21.7630    0.4560 C.3   207  VAL207      0.0266
     98  CG1       33.8220   22.8380    0.3020 C.3   207  VAL207      0.0020
     99  CG2       34.4750   20.4320   -0.2420 C.3   207  VAL207      0.0020
    100  N         36.9310   23.8940    1.5350 N.am  208  LEU208     -0.1980
    101  CA        37.1970   25.2560    1.9960 C.3   208  LEU208      0.1596
    102  C         38.3720   25.8980    1.2630 C.2   208  LEU208      0.2287
    103  O         38.2900   27.0630    0.9040 O.2   208  LEU208     -0.2864
    104  CB        37.4070   25.3130    3.5140 C.3   208  LEU208      0.0297
    105  CG        36.2270   24.8700    4.3940 C.3   208  LEU208      0.0022
    106  CD1       36.6770   24.7570    5.8640 C.3   208  LEU208      0.0001
    107  CD2       35.0090   25.8060    4.2560 C.3   208  LEU208      0.0001
@<TRIPOS>BOND
     1    96    95    2
     2    99    97    1
     3    94    93    1
     4    94    95    1
     5    94    97    1
     6    95   100   am
     7    98    97    1
     8   103   102    2
     9    37    35    1
    10    34    35    2
    11    34    33    1
    12   102   101    1
    13    35    36    1
    14   100   101    1
    15    32    33    1
    16    32    31    1
    17    81    80    2
    18   101   104    1
    19    82    79    1
    20    82    83    1
    21    49    46    1
    22    49    50    1
    23    51    50    1
    24    51    52    1
    25    31    28    1
    26    79    80    1
    27    79    78    1
    28    83    84    1
    29    41    40    2
    30    53    52    1
    31    80    85   am
    32    46    47    1
    33    46    45    1
    34    47    48    2
    35    78    84    1
    36    40    45   am
    37    40    39    1
    38   104   105    1
    39    88    87    2
    40    28    27    1
    41    28    29    1
    42    85    86    1
    43    26    24   am
    44    87    86    1
    45    27    20   am
    46    29    30    2
    47    29    38   am
    48   107   105    1
    49   105   106    1
    50    86    89    1
    51    38    44    1
    52    38    39    1
    53    44    43    1
    54    39    42    1
    55    42    43    1
    56    25    24    2
    57    24    23    1
    58    11    10    2
    59    20    19    1
    60    20    21    2
    61    19    22    1
    62    19    18    1
    63    91    90    1
    64    74    73    2
    65    89    90    1
    66    22    23    1
    67    71    72    1
    68    10    18   am
    69    10     9    1
    70    72    73    1
    71    72    75    1
    72    90    92    1
    73    12     9    1
    74    12    13    1
    75    76    75    1
    76     9     8    1
    77    75    77    1
    78    13    14   ar
    79    13    15   ar
    80    69    70    1
    81    69    68    1
    82     8     3   am
    83    14    16   ar
    84    15    17   ar
    85    61    59    1
    86    54    55    1
    87    67    68    1
    88    67    66    1
    89    55    56    1
    90    55    58    1
    91    16    17   ar
    92     3     4    2
    93     3     2    1
    94    59    58    1
    95    59    60    1
    96    56    62   am
    97    56    57    2
    98    62    63    1
    99    66    63    1
   100     1     2    1
   101     2     5    1
   102    63    64    1
   103    65    64    2
   104     7     5    1
   105     5     6    1
