@<TRIPOS>MOLECULE
tmp/2bbhA00.pdb
 110 103 0 0 0
SMALL
GASTEIGER

@<TRIPOS>ATOM
      1  N         23.4170   23.2070    2.2050 N.3    86  VAL86      -0.1245
      2  CA        22.7660   24.4820    2.5120 C.3    86  VAL86       0.1561
      3  C         21.6410   24.5240    1.4920 C.2    86  VAL86       0.2260
      4  O         21.8930   24.3110    0.3090 O.2    86  VAL86      -0.2867
      5  CB        23.7200   25.6820    2.2930 C.3    86  VAL86       0.0252
      6  CG1       23.0010   26.9880    2.6790 C.3    86  VAL86       0.0019
      7  CG2       25.0700   25.4590    3.0410 C.3    86  VAL86       0.0019
      8  N         17.9320   26.6320    0.2340 N.3    88  PHE88      -0.1241
      9  CA        17.3100   27.9670    0.3700 C.3    88  PHE88       0.1605
     10  C         15.8200   27.8970    0.1330 C.2    88  PHE88       0.2264
     11  O         15.4170   27.6270   -0.9790 O.2    88  PHE88      -0.2867
     12  CB        17.9340   28.9500   -0.6280 C.3    88  PHE88       0.0534
     13  CG        19.3760   29.2520   -0.3210 C.ar   88  PHE88      -0.0203
     14  CD1       19.6960   30.3080    0.5400 C.ar   88  PHE88      -0.0042
     15  CD2       20.3870   28.4520   -0.8250 C.ar   88  PHE88      -0.0042
     16  CE1       21.0240   30.6170    0.8570 C.ar   88  PHE88      -0.0003
     17  CE2       21.7360   28.7260   -0.4900 C.ar   88  PHE88      -0.0003
     18  CZ        22.0340   29.8240    0.3620 C.ar   88  PHE88      -0.0000
     19  N         16.7270   29.7460    5.4640 N.3    93  VAL93      -0.1245
     20  CA        17.8700   28.9640    4.9750 C.3    93  VAL93       0.1561
     21  C         18.0000   27.7160    5.9170 C.2    93  VAL93       0.2260
     22  O         17.9300   27.8430    7.1520 O.2    93  VAL93      -0.2867
     23  CB        19.1690   29.7640    4.9880 C.3    93  VAL93       0.0252
     24  CG1       20.3110   28.9470    4.3490 C.3    93  VAL93       0.0019
     25  CG2       18.9550   31.0970    4.2110 C.3    93  VAL93       0.0019
     26  N         20.4690   24.4270    6.9610 N.3    95  ILE95      -0.1245
     27  CA        21.8220   23.9130    6.8330 C.3    95  ILE95       0.1561
     28  C         21.9990   22.6150    7.6540 C.2    95  ILE95       0.2260
     29  O         21.5890   22.5550    8.7960 O.2    95  ILE95      -0.2867
     30  CB        22.8560   24.9780    7.3180 C.3    95  ILE95       0.0252
     31  CG1       22.6620   26.2720    6.5100 C.3    95  ILE95       0.0019
     32  CG2       24.3230   24.4480    7.2270 C.3    95  ILE95       0.0019
     33  CD1       23.6350   27.3730    6.8760 C.3    95  ILE95       0.0001
     34  N         18.0550   29.4580    9.6100 N.3   115  LEU115     -0.1245
     35  CA        18.0850   30.9490    9.7950 C.3   115  LEU115      0.1561
     36  C         16.7290   31.3840    9.3360 C.2   115  LEU115      0.2260
     37  O         16.3920   31.2580    8.1790 O.2   115  LEU115     -0.2867
     38  CB        19.1940   31.5970    8.9630 C.3   115  LEU115      0.0270
     39  CG        19.1210   33.1540    8.8630 C.3   115  LEU115      0.0019
     40  CD1       19.3350   33.7120   10.3090 C.3   115  LEU115      0.0001
     41  CD2       20.1650   33.7080    7.9170 C.3   115  LEU115      0.0001
     42  N         13.8540   34.6160    9.8120 N.3   117  LYS117     -0.1231
     43  CA        13.6860   35.9780   10.3790 C.3   117  LYS117      0.1693
     44  C         14.9690   36.3440   11.1290 C.2   117  LYS117      0.2592
     45  O         16.0850   36.2850   10.5590 O.2   117  LYS117     -0.2718
     46  CB        12.4120   36.0570   11.2520 C.3   117  LYS117      0.0285
     47  CG        11.1260   35.7240   10.4790 C.3   117  LYS117      0.0035
     48  CD         9.9000   36.0040   11.3710 C.3   117  LYS117      0.0206
     49  CE         8.5890   35.8000   10.6330 C.3   117  LYS117      0.1093
     50  NZ         7.4760   36.1550   11.6040 N.3   117  LYS117     -0.1314
     51  N         14.8810   36.6490   12.4140 N.am  118  ASN118     -0.1974
     52  CA        16.0790   36.9750   13.1750 C.3   118  ASN118      0.1688
     53  C         16.5110   35.8920   14.1420 C.2   118  ASN118      0.2292
     54  O         17.1820   36.1300   15.1250 O.2   118  ASN118     -0.2864
     55  CB        15.8550   38.3060   13.9180 C.3   118  ASN118      0.1181
     56  CG        15.4710   39.3980   12.9580 C.2   118  ASN118      0.2629
     57  OD1       16.0950   39.5210   11.8970 O.2   118  ASN118     -0.2716
     58  ND2       14.3700   40.1420   13.2600 N.am  118  ASN118     -0.0877
     59  N         23.6130   41.1330   12.7060 N.3   148  ARG148     -0.1231
     60  CA        22.3180   40.4770   12.6380 C.3   148  ARG148      0.1694
     61  C         22.4670   38.9410   12.6890 C.2   148  ARG148      0.2592
     62  O         23.5850   38.4350   12.8010 O.2   148  ARG148     -0.2718
     63  CB        21.6300   40.9210   11.3730 C.3   148  ARG148      0.0321
     64  CG        21.2200   42.4800   11.3890 C.3   148  ARG148      0.0489
     65  CD        20.4480   42.8840   10.0920 C.3   148  ARG148      0.2205
     66  NE        19.1050   42.3000   10.0590 N.pl3 148  ARG148     -0.0865
     67  CZ        18.0330   42.7980   10.6820 C.cat 148  ARG148      0.5346
     68  NH1       18.0910   43.9620   11.3900 N.pl3 148  ARG148      0.1354
     69  NH2       16.8720   42.1400   10.5790 N.pl3 148  ARG148      0.1354
     70  N         21.3460   38.2410   12.5480 N.am  149  ALA149     -0.1966
     71  CA        21.3320   36.7830   12.7450 C.3   149  ALA149      0.1728
     72  C         22.1020   36.0370   11.6620 C.2   149  ALA149      0.2616
     73  O         22.5560   34.9310   11.9250 O.2   149  ALA149     -0.2715
     74  CB        19.8900   36.2920   12.8110 C.3   149  ALA149      0.0334
     75  N         22.2520   36.6170   10.4590 N.am  150  ASP150     -0.1971
     76  CA        23.1040   35.9480    9.4490 C.3   150  ASP150      0.1709
     77  C         24.5530   35.8330    9.8950 C.2   150  ASP150      0.2293
     78  O         25.1980   34.8020    9.6740 O.2   150  ASP150     -0.2864
     79  CB        23.0120   36.5280    8.0320 C.3   150  ASP150      0.1436
     80  CG        23.2050   38.0610    7.9750 C.2   150  ASP150      0.3671
     81  OD1       23.1150   38.7310    9.0240 O.co2 150  ASP150     -0.2456
     82  OD2       23.4110   38.5580    6.8420 O.co2 150  ASP150     -0.2456
     83  N         24.8140   32.9890   12.3450 N.3   153  LEU153     -0.1231
     84  CA        24.8880   31.7730   11.5000 C.3   153  LEU153      0.1693
     85  C         26.3180   31.5320   11.0330 C.2   153  LEU153      0.2592
     86  O         26.8720   30.4570   11.3090 O.2   153  LEU153     -0.2718
     87  CB        23.9010   31.8740   10.3420 C.3   153  LEU153      0.0284
     88  CG        23.9060   30.6300    9.4650 C.3   153  LEU153      0.0019
     89  CD1       23.3330   29.4190   10.2210 C.3   153  LEU153      0.0001
     90  CD2       23.1430   30.8970    8.1360 C.3   153  LEU153      0.0001
     91  N         26.9420   32.5330   10.3840 N.am  154  TYR154     -0.1976
     92  CA        28.3520   32.4170    9.9740 C.3   154  TYR154      0.1639
     93  C         29.2750   32.1380   11.1210 C.2   154  TYR154      0.2290
     94  O         30.1930   31.3200   10.9850 O.2   154  TYR154     -0.2864
     95  CB        28.8370   33.6670    9.2020 C.3   154  TYR154      0.0560
     96  CG        27.9660   33.9760    8.0170 C.ar  154  TYR154     -0.0198
     97  CD1       27.4460   32.9620    7.2090 C.ar  154  TYR154     -0.0009
     98  CD2       27.6710   35.3090    7.6780 C.ar  154  TYR154     -0.0009
     99  CE1       26.6280   33.2710    6.1350 C.ar  154  TYR154      0.0417
    100  CE2       26.8710   35.6170    6.6050 C.ar  154  TYR154      0.0417
    101  CZ        26.3590   34.6310    5.8400 C.ar  154  TYR154      0.1957
    102  OH        25.5590   34.9640    4.7530 O.3   154  TYR154     -0.2866
    103  N         29.0590   28.4620   12.1820 N.3   157  ILE157     -0.1245
    104  CA        29.7240   27.6040   11.1920 C.3   157  ILE157      0.1561
    105  C         31.2680   27.7480   11.3130 C.2   157  ILE157      0.2260
    106  O         32.0360   26.7590   11.3090 O.2   157  ILE157     -0.2867
    107  CB        29.2230   27.9420    9.7950 C.3   157  ILE157      0.0252
    108  CG1       27.7260   27.5920    9.6620 C.3   157  ILE157      0.0019
    109  CG2       30.0670   27.1860    8.7710 C.3   157  ILE157      0.0019
    110  CD1       27.0260   28.1550    8.4290 C.3   157  ILE157      0.0001
@<TRIPOS>BOND
     1    11    10    2
     2    15    17   ar
     3    15    13   ar
     4    12    13    1
     5    12     9    1
     6    17    18   ar
     7    13    14   ar
     8    10     9    1
     9     8     9    1
    10     4     3    2
    11    18    16   ar
    12    14    16   ar
    13     3     2    1
    14     1     2    1
    15     5     2    1
    16     5     6    1
    17     5     7    1
    18    25    23    1
    19    24    23    1
    20   102   101    1
    21    20    23    1
    22    20    19    1
    23    20    21    1
    24   101    99   ar
    25   101   100   ar
    26    21    22    2
    27    99    97   ar
    28    31    33    1
    29    31    30    1
    30   100    98   ar
    31    27    26    1
    32    27    30    1
    33    27    28    1
    34    82    80   ar
    35    97    96   ar
    36    32    30    1
    37    28    29    2
    38    98    96   ar
    39    41    39    1
    40    80    79    1
    41    80    81   ar
    42    96    95    1
    43    79    76    1
    44    90    88    1
    45    37    36    2
    46   110   108    1
    47   109   107    1
    48    39    38    1
    49    39    40    1
    50    38    35    1
    51    95    92    1
    52    36    35    1
    53    76    77    1
    54    76    75    1
    55    88    89    1
    56    88    87    1
    57    34    35    1
    58   108   107    1
    59    78    77    2
    60   107   104    1
    61    42    43    1
    62    92    91    1
    63    92    93    1
    64    66    65    1
    65    66    67    2
    66    65    64    1
    67    87    84    1
    68    43    44    1
    69    43    46    1
    70    91    85   am
    71    75    72   am
    72    47    46    1
    73    47    48    1
    74    45    44    2
    75    69    67    1
    76    49    48    1
    77    49    50    1
    78    67    68    1
    79    94    93    2
    80    85    86    2
    81    85    84    1
    82    44    51   am
    83   104   105    1
    84   104   103    1
    85   106   105    2
    86    63    64    1
    87    63    60    1
    88    84    83    1
    89    72    73    2
    90    72    71    1
    91    57    56    2
    92    51    52    1
    93    70    61   am
    94    70    71    1
    95    60    61    1
    96    60    59    1
    97    61    62    2
    98    71    74    1
    99    56    58   am
   100    56    55    1
   101    52    55    1
   102    52    53    1
   103    53    54    2
