@<TRIPOS>MOLECULE
tmp/2bboA00.pdb
 105 101 0 0 0
SMALL
GASTEIGER

@<TRIPOS>ATOM
      1  N         61.3600   49.0700   79.1820 N.3    13  TRP13      -0.1241
      2  CA        60.4060   48.9950   80.2860 C.3    13  TRP13       0.1605
      3  C         60.3300   50.3270   81.0190 C.2    13  TRP13       0.2264
      4  O         61.3350   50.8500   81.5090 O.2    13  TRP13      -0.2867
      5  CB        60.6950   47.8310   81.2420 C.3    13  TRP13       0.0550
      6  CG        59.9810   46.5540   80.8550 C.ar   13  TRP13       0.0003
      7  CD1       60.5590   45.3720   80.4920 C.ar   13  TRP13       0.0946
      8  CD2       58.5610   46.3430   80.7800 C.ar   13  TRP13       0.0152
      9  NE1       59.5930   44.4370   80.2010 N.ar   13  TRP13      -0.2442
     10  CE2       58.3580   45.0060   80.3660 C.ar   13  TRP13       0.0810
     11  CE3       57.4400   47.1520   81.0240 C.ar   13  TRP13       0.0012
     12  CZ2       57.0820   44.4560   80.1940 C.ar   13  TRP13       0.0191
     13  CZ3       56.1670   46.6050   80.8490 C.ar   13  TRP13       0.0001
     14  CH2       56.0020   45.2690   80.4370 C.ar   13  TRP13       0.0015
     15  N         58.0860   51.1430   83.5940 N.3    15  GLU15      -0.1231
     16  CA        57.8150   51.0060   85.0250 C.3    15  GLU15       0.1699
     17  C         58.9730   50.3070   85.7500 C.2    15  GLU15       0.2592
     18  O         60.1030   50.2800   85.2490 O.2    15  GLU15      -0.2718
     19  CB        56.4880   50.2640   85.2570 C.3    15  GLU15       0.0402
     20  CG        55.2300   51.0380   84.8350 C.3    15  GLU15       0.1161
     21  CD        54.8890   50.8650   83.3590 C.2    15  GLU15       0.3649
     22  OE1       54.7110   49.7090   82.9140 O.co2  15  GLU15      -0.2457
     23  OE2       54.7910   51.8880   82.6440 O.co2  15  GLU15      -0.2457
     24  N         58.6830   49.7550   86.9280 N.am   16  GLY16      -0.1957
     25  CA        59.6830   49.0790   87.7490 C.3    16  GLY16       0.1869
     26  C         59.6810   49.5930   89.1750 C.2    16  GLY16       0.2309
     27  O         58.9350   49.1000   90.0230 O.2    16  GLY16      -0.2863
     28  N         64.5210   46.1090   76.8240 N.3    21  VAL21      -0.1245
     29  CA        64.0550   44.7540   77.1090 C.3    21  VAL21       0.1561
     30  C         64.0400   43.8720   75.8480 C.2    21  VAL21       0.2260
     31  O         64.2980   42.6700   75.9250 O.2    21  VAL21      -0.2867
     32  CB        62.6670   44.7600   77.8090 C.3    21  VAL21       0.0252
     33  CG1       61.6010   45.4580   76.9540 C.3    21  VAL21       0.0019
     34  CG2       62.2380   43.3440   78.1810 C.3    21  VAL21       0.0019
     35  N         66.2730   32.4770   80.7480 N.3    41  THR41      -0.1203
     36  CA        65.4840   33.1570   81.7660 C.3    41  THR41       0.1994
     37  C         65.7700   34.6560   81.7390 C.2    41  THR41       0.2618
     38  O         66.9180   35.0870   81.8310 O.2    41  THR41      -0.2717
     39  CB        65.7170   32.5570   83.1810 C.3    41  THR41       0.1784
     40  OG1       65.1250   33.4080   84.1680 O.3    41  THR41      -0.2211
     41  CG2       67.2000   32.3970   83.4860 C.3    41  THR41       0.0376
     42  N         64.7180   35.4470   81.5750 N.am   42  GLY42      -0.1942
     43  CA        64.8590   36.8990   81.5040 C.3    42  GLY42       0.2014
     44  C         65.2130   37.4250   80.1220 C.2    42  GLY42       0.2639
     45  O         65.5420   38.6070   79.9790 O.2    42  GLY42      -0.2714
     46  N         65.1340   36.5610   79.1060 N.am   43  ALA43      -0.1963
     47  CA        65.4410   36.9520   77.7230 C.3    43  ALA43       0.1728
     48  C         64.4660   37.9910   77.1900 C.2    43  ALA43       0.2617
     49  O         64.8550   38.8810   76.4220 O.2    43  ALA43      -0.2715
     50  CB        65.4640   35.7430   76.8100 C.3    43  ALA43       0.0334
     51  N         63.2040   37.8710   77.6010 N.am   44  GLY44      -0.1940
     52  CA        62.1610   38.8070   77.1950 C.3    44  GLY44       0.2014
     53  C         61.0110   38.1530   76.4520 C.2    44  GLY44       0.2639
     54  O         60.3560   38.8000   75.6300 O.2    44  GLY44      -0.2714
     55  N         60.7600   36.8780   76.7560 N.am   45  LYS45      -0.1963
     56  CA        59.6890   36.1010   76.1170 C.3    45  LYS45       0.1728
     57  C         58.2900   36.5910   76.5180 C.2    45  LYS45       0.2617
     58  O         57.4220   36.7700   75.6670 O.2    45  LYS45      -0.2715
     59  CB        59.8430   34.6030   76.4230 C.3    45  LYS45       0.0311
     60  CG        61.2120   34.0270   76.0680 C.3    45  LYS45       0.0038
     61  CD        61.2910   32.5100   76.2590 C.3    45  LYS45       0.0206
     62  CE        61.2630   32.0980   77.7310 C.3    45  LYS45       0.1093
     63  NZ        62.5090   32.4390   78.4650 N.3    45  LYS45      -0.1314
     64  N         58.0850   36.7940   77.8170 N.am   46  THR46      -0.1937
     65  CA        56.8500   37.3650   78.3400 C.3    46  THR46       0.2028
     66  C         56.6660   38.7860   77.8150 C.2    46  THR46       0.2642
     67  O         55.5730   39.1510   77.3750 O.2    46  THR46      -0.2714
     68  CB        56.8560   37.3730   79.8830 C.3    46  THR46       0.1808
     69  OG1       57.0260   36.0320   80.3540 O.3    46  THR46      -0.2208
     70  CG2       55.5590   37.9220   80.4420 C.3    46  THR46       0.0379
     71  N         57.7420   39.5710   77.8440 N.am   47  SER47      -0.1949
     72  CA        57.6920   40.9650   77.4020 C.3    47  SER47       0.1924
     73  C         57.3910   41.1200   75.9060 C.2    47  SER47       0.2314
     74  O         56.7370   42.0890   75.5040 O.2    47  SER47      -0.2863
     75  CB        58.9740   41.6950   77.7760 C.3    47  SER47       0.2116
     76  OG        59.1220   41.7550   79.1840 O.3    47  SER47      -0.2180
     77  N         53.7530   40.7050   75.8560 N.3    50  MET50      -0.1245
     78  CA        53.1970   41.9390   76.4190 C.3    50  MET50       0.1570
     79  C         53.1100   43.0160   75.3480 C.2    50  MET50       0.2261
     80  O         52.0960   43.6980   75.2150 O.2    50  MET50      -0.2867
     81  CB        54.0500   42.4520   77.5830 C.3    50  MET50       0.0387
     82  CG        54.1090   41.5430   78.8100 C.3    50  MET50       0.0595
     83  SD        52.6100   41.5640   79.8040 S.3    50  MET50      -0.1393
     84  CE        51.6630   40.2240   79.0680 C.3    50  MET50       0.0692
     85  N         52.0670   32.6430   82.3410 N.3    74  GLN74      -0.1245
     86  CA        52.9040   31.5180   82.8050 C.3    74  GLN74       0.1566
     87  C         52.5880   31.1220   84.2580 C.2    74  GLN74       0.2260
     88  O         53.0480   30.0870   84.7510 O.2    74  GLN74      -0.2867
     89  CB        54.4080   31.7930   82.5920 C.3    74  GLN74       0.0367
     90  CG        54.9870   32.9570   83.3980 C.3    74  GLN74       0.0905
     91  CD        56.4880   33.1400   83.1930 C.2    74  GLN74       0.2608
     92  OE1       56.9260   34.1100   82.5690 O.2    74  GLN74      -0.2717
     93  NE2       57.2820   32.2070   83.7110 N.am   74  GLN74      -0.0878
     94  N         57.6300   25.7680   83.0360 N.3   158  TYR158     -0.1241
     95  CA        58.1360   26.0450   84.3730 C.3   158  TYR158      0.1605
     96  C         57.5480   25.0180   85.3400 C.2   158  TYR158      0.2264
     97  O         57.8180   25.0450   86.5450 O.2   158  TYR158     -0.2867
     98  CB        57.7970   27.4850   84.7820 C.3   158  TYR158      0.0534
     99  CG        58.1790   28.4850   83.7100 C.ar  158  TYR158     -0.0201
    100  CD1       59.4880   28.9600   83.6060 C.ar  158  TYR158     -0.0009
    101  CD2       57.2420   28.9230   82.7730 C.ar  158  TYR158     -0.0009
    102  CE1       59.8460   29.8570   82.6110 C.ar  158  TYR158      0.0417
    103  CE2       57.5940   29.8160   81.7750 C.ar  158  TYR158      0.0417
    104  CZ        58.8950   30.2810   81.6980 C.ar  158  TYR158      0.1957
    105  OH        59.2430   31.1730   80.7090 O.3   158  TYR158     -0.2866
@<TRIPOS>BOND
     1    80    79    2
     2    79    78    1
     3    74    73    2
     4    54    53    2
     5    58    57    2
     6    30    31    2
     7    30    29    1
     8    77    78    1
     9    73    72    1
    10    60    61    1
    11    60    59    1
    12    56    59    1
    13    56    57    1
    14    56    55    1
    15    61    62    1
    16    78    81    1
    17    49    48    2
    18    53    55   am
    19    53    52    1
    20    57    64   am
    21    50    47    1
    22    28    29    1
    23    33    32    1
    24    29    32    1
    25    48    51   am
    26    48    47    1
    27    52    51    1
    28    67    66    2
    29    72    75    1
    30    72    71    1
    31    81    82    1
    32    47    46    1
    33    62    63    1
    34    75    76    1
    35    32    34    1
    36    66    71   am
    37    66    65    1
    38    64    65    1
    39    65    68    1
    40    82    83    1
    41    84    83    1
    42    46    44   am
    43     1     2    1
    44    68    69    1
    45    68    70    1
    46    45    44    2
    47    44    43    1
    48    12    10   ar
    49    12    14   ar
    50     9    10   ar
    51     9     7   ar
    52     2     3    1
    53     2     5    1
    54    10     8   ar
    55    14    13   ar
    56     7     6   ar
    57   105   104    1
    58    35    36    1
    59     8     6   ar
    60     8    11   ar
    61    13    11   ar
    62     6     5    1
    63     3     4    2
    64    43    42    1
    65    42    37   am
    66   104   103   ar
    67   104   102   ar
    68    37    36    1
    69    37    38    2
    70    36    39    1
    71   103   101   ar
    72    85    86    1
    73    92    91    2
    74    89    86    1
    75    89    90    1
    76   102   100   ar
    77    23    21   ar
    78   101    99   ar
    79    86    87    1
    80    22    21   ar
    81    94    95    1
    82    39    41    1
    83    39    40    1
    84    91    90    1
    85    91    93   am
    86    21    20    1
    87    15    16    1
    88   100    99   ar
    89    99    98    1
    90    87    88    2
    91    95    98    1
    92    95    96    1
    93    20    19    1
    94    16    19    1
    95    16    17    1
    96    18    17    2
    97    96    97    2
    98    17    24   am
    99    24    25    1
   100    25    26    1
   101    26    27    2
