@<TRIPOS>MOLECULE
tmp/2bbqA01.pdb
 247 241 0 0 0
SMALL
GASTEIGER

@<TRIPOS>ATOM
      1  N          9.4680   27.5820   25.9680 N.3    21  ARG21      -0.1231
      2  CA         9.1690   26.6370   24.8960 C.3    21  ARG21       0.1694
      3  C          8.0600   25.6570   25.2220 C.2    21  ARG21       0.2592
      4  O          7.2740   25.3490   24.3330 O.2    21  ARG21      -0.2718
      5  CB        10.4750   25.8890   24.5720 C.3    21  ARG21       0.0321
      6  CG        10.5350   24.7590   23.5720 C.3    21  ARG21       0.0489
      7  CD        11.8140   24.0700   24.0130 C.3    21  ARG21       0.2205
      8  NE        11.6090   22.6560   24.1480 N.pl3  21  ARG21      -0.0865
      9  CZ        11.7190   21.9850   25.2890 C.cat  21  ARG21       0.5346
     10  NH1       11.9810   22.5180   26.4630 N.pl3  21  ARG21       0.1354
     11  NH2       11.5670   20.6810   25.2840 N.pl3  21  ARG21       0.1354
     12  N          8.0000   25.1600   26.4620 N.am   22  THR22      -0.1953
     13  CA         7.0030   24.1810   26.8590 C.3    22  THR22       0.1897
     14  C          5.6790   24.8550   27.2270 C.2    22  THR22       0.2313
     15  O          4.7300   24.1660   27.6080 O.2    22  THR22      -0.2863
     16  CB         7.5390   23.3480   28.0790 C.3    22  THR22       0.1794
     17  OG1        7.4330   24.1590   29.2440 O.3    22  THR22      -0.2208
     18  CG2        8.9930   23.0100   27.9850 C.3    22  THR22       0.0378
     19  N         16.2540   15.8570   49.4610 N.3    48  LYS48      -0.1231
     20  CA        15.2320   15.0720   48.8260 C.3    48  LYS48       0.1693
     21  C         15.9640   13.8140   48.3720 C.2    48  LYS48       0.2592
     22  O         17.1690   13.8910   48.1930 O.2    48  LYS48      -0.2718
     23  CB        14.6390   15.8010   47.6320 C.3    48  LYS48       0.0285
     24  CG        15.5030   15.8780   46.4080 C.3    48  LYS48       0.0035
     25  CD        14.5880   16.3290   45.3010 C.3    48  LYS48       0.0206
     26  CE        15.2690   16.0590   44.0000 C.3    48  LYS48       0.1093
     27  NZ        14.5890   16.8790   43.0170 N.3    48  LYS48      -0.1314
     28  N         15.3040   12.6620   48.2650 N.am   49  ARG49      -0.1966
     29  CA        15.8860   11.4110   47.8280 C.3    49  ARG49       0.1729
     30  C         16.2030   11.3730   46.3350 C.2    49  ARG49       0.2616
     31  O         15.2880   11.5690   45.5360 O.2    49  ARG49      -0.2715
     32  CB        14.9350   10.2310   48.1480 C.3    49  ARG49       0.0348
     33  CG        15.6160    8.8560   47.8960 C.3    49  ARG49       0.0492
     34  CD        14.8480    7.5590   48.1950 C.3    49  ARG49       0.2205
     35  NE        14.6180    7.3750   49.6120 N.pl3  49  ARG49      -0.0865
     36  CZ        15.5640    6.9350   50.4390 C.cat  49  ARG49       0.5346
     37  NH1       16.7570    6.5320   50.0030 N.pl3  49  ARG49       0.1354
     38  NH2       15.2990    6.8950   51.7380 N.pl3  49  ARG49       0.1354
     39  N         17.4240   11.1370   45.8550 N.am   50  CYS50      -0.1954
     40  CA        17.6750   11.0250   44.4230 C.3    50  CYS50       0.1843
     41  C         17.9110    9.5870   44.0560 C.2    50  CYS50       0.2625
     42  O         18.4410    8.7900   44.8300 O.2    50  CYS50      -0.2714
     43  CB        18.8970   11.8020   43.9880 C.3    50  CYS50       0.0997
     44  SG        18.6040   13.5180   44.4080 S.3    50  CYS50      -0.0797
     45  N         17.5030    9.2440   42.8370 N.am   51  HIS51      -0.1973
     46  CA        17.5990    7.9000   42.3360 C.3    51  HIS51       0.1656
     47  C         18.9230    7.6790   41.6510 C.2    51  HIS51       0.2291
     48  O         19.0240    7.9570   40.4450 O.2    51  HIS51      -0.2864
     49  CB        16.4640    7.6690   41.3730 C.3    51  HIS51       0.0771
     50  CG        16.2330    6.2070   41.0280 C.ar   51  HIS51       0.0820
     51  ND1       15.8490    5.7260   39.8500 N.ar   51  HIS51      -0.2267
     52  CD2       16.3030    5.1470   41.9180 C.ar   51  HIS51       0.1154
     53  CE1       15.6680    4.4270   39.9900 C.ar   51  HIS51       0.1986
     54  NE2       15.9430    4.0820   41.2330 N.ar   51  HIS51      -0.2212
     55  N         20.4290    4.8610   40.6640 N.3    53  ARG53      -0.1231
     56  CA        20.3370    3.9670   39.5190 C.3    53  ARG53       0.1694
     57  C         20.1980    4.7510   38.1770 C.2    53  ARG53       0.2592
     58  O         20.9610    4.4850   37.2260 O.2    53  ARG53      -0.2718
     59  CB        19.1470    3.0100   39.8020 C.3    53  ARG53       0.0321
     60  CG        19.0840    1.8100   38.8310 C.3    53  ARG53       0.0489
     61  CD        18.1160    0.6550   39.1540 C.3    53  ARG53       0.2205
     62  NE        16.7060    1.0380   39.1000 N.pl3  53  ARG53      -0.0865
     63  CZ        15.6810    0.1460   39.1470 C.cat  53  ARG53       0.5346
     64  NH1       15.8910   -1.1830   39.1460 N.pl3  53  ARG53       0.1354
     65  NH2       14.3990    0.5710   39.1560 N.pl3  53  ARG53       0.1354
     66  N         19.3570    5.8030   38.1060 N.am   54  SER54      -0.1952
     67  CA        19.1820    6.5730   36.8790 C.3    54  SER54       0.1924
     68  C         20.4010    7.3950   36.5160 C.2    54  SER54       0.2314
     69  O         20.8190    7.4180   35.3520 O.2    54  SER54      -0.2863
     70  CB        17.9770    7.5170   36.9980 C.3    54  SER54       0.2116
     71  OG        16.8100    6.7440   37.2540 O.3    54  SER54      -0.2180
     72  N         22.5720    6.4940   33.0170 N.3    58  GLU58      -0.1245
     73  CA        22.6440    7.4710   31.9680 C.3    58  GLU58       0.1567
     74  C         24.0940    7.7810   31.6590 C.2    58  GLU58       0.2260
     75  O         24.4070    7.7540   30.4730 O.2    58  GLU58      -0.2867
     76  CB        21.9120    8.6890   32.4010 C.3    58  GLU58       0.0388
     77  CG        21.8540    9.7990   31.3600 C.3    58  GLU58       0.1160
     78  CD        21.4080   11.1270   31.9430 C.2    58  GLU58       0.3649
     79  OE1       21.8650   11.4910   33.0340 O.co2  58  GLU58      -0.2457
     80  OE2       20.5790   11.7870   31.3170 O.co2  58  GLU58      -0.2457
     81  N         15.6100   -0.4830   33.5620 N.3    76  ASN76      -0.1240
     82  CA        14.4720    0.1430   34.2110 C.3    76  ASN76       0.1653
     83  C         14.6180    1.6230   34.5190 C.2    76  ASN76       0.2266
     84  O         14.2770    2.1270   35.5940 O.2    76  ASN76      -0.2867
     85  CB        14.1390   -0.6360   35.5080 C.3    76  ASN76       0.1155
     86  CG        13.2010   -1.8140   35.2730 C.2    76  ASN76       0.2627
     87  OD1       12.1240   -1.9080   35.8720 O.2    76  ASN76      -0.2716
     88  ND2       13.5130   -2.7760   34.4000 N.am   76  ASN76      -0.0877
     89  N         13.6850    5.4160   33.0240 N.3    78  THR78      -0.1203
     90  CA        12.7190    6.0470   32.1490 C.3    78  THR78       0.1994
     91  C         12.8560    7.5510   31.9630 C.2    78  THR78       0.2618
     92  O         12.0050    8.1990   31.3630 O.2    78  THR78      -0.2717
     93  CB        11.3460    5.6800   32.7270 C.3    78  THR78       0.1784
     94  OG1       11.3880    6.2050   34.0480 O.3    78  THR78      -0.2211
     95  CG2       11.0150    4.1860   32.7140 C.3    78  THR78       0.0376
     96  N         13.9600    8.1200   32.4260 N.am   79  ILE79      -0.1965
     97  CA        14.1910    9.5590   32.4250 C.3    79  ILE79       0.1727
     98  C         14.1460   10.2370   31.0660 C.2    79  ILE79       0.2616
     99  O         13.8610   11.4190   30.9610 O.2    79  ILE79      -0.2715
    100  CB        15.5520    9.8110   33.1290 C.3    79  ILE79       0.0290
    101  CG1       16.7220    9.0470   32.5050 C.3    79  ILE79       0.0022
    102  CG2       15.3310    9.4320   34.5890 C.3    79  ILE79       0.0023
    103  CD1       18.1520    9.3990   32.9690 C.3    79  ILE79       0.0001
    104  N         14.3330    9.5130   29.9810 N.am   80  TRP80      -0.1974
    105  CA        14.3680   10.0690   28.6440 C.3    80  TRP80       0.1640
    106  C         13.2080    9.6210   27.7720 C.2    80  TRP80       0.2290
    107  O         13.1780    9.8870   26.5760 O.2    80  TRP80      -0.2864
    108  CB        15.7130    9.6570   28.0040 C.3    80  TRP80       0.0576
    109  CG        16.8780   10.5550   28.3880 C.ar   80  TRP80       0.0006
    110  CD1       17.8200   10.1360   29.2780 C.ar   80  TRP80       0.0946
    111  CD2       17.0860   11.8360   27.9160 C.ar   80  TRP80       0.0152
    112  NE1       18.6180   11.1540   29.3680 N.ar   80  TRP80      -0.2442
    113  CE2       18.2310   12.1770   28.5830 C.ar   80  TRP80       0.0810
    114  CE3       16.4840   12.7200   27.0380 C.ar   80  TRP80       0.0012
    115  CZ2       18.7900   13.4310   28.3900 C.ar   80  TRP80       0.0191
    116  CZ3       17.0450   13.9640   26.8340 C.ar   80  TRP80       0.0001
    117  CH2       18.1870   14.3220   27.5140 C.ar   80  TRP80       0.0015
    118  N         10.8940   12.1360   25.0450 N.3    83  TRP83      -0.1241
    119  CA        11.5620   12.7620   23.9040 C.3    83  TRP83       0.1605
    120  C         11.9660   11.7600   22.8220 C.2    83  TRP83       0.2264
    121  O         12.3320   12.1780   21.7210 O.2    83  TRP83      -0.2867
    122  CB        12.8070   13.5470   24.4160 C.3    83  TRP83       0.0550
    123  CG        12.3600   14.5980   25.4430 C.ar   83  TRP83       0.0003
    124  CD1       11.8430   15.8150   25.0510 C.ar   83  TRP83       0.0946
    125  CD2       12.2540   14.4170   26.8030 C.ar   83  TRP83       0.0152
    126  NE1       11.3840   16.3800   26.1370 N.ar   83  TRP83      -0.2442
    127  CE2       11.6060   15.5910   27.1960 C.ar   83  TRP83       0.0810
    128  CE3       12.5830   13.4540   27.7420 C.ar   83  TRP83       0.0012
    129  CZ2       11.2600   15.8180   28.5260 C.ar   83  TRP83       0.0191
    130  CZ3       12.2460   13.6750   29.0670 C.ar   83  TRP83       0.0001
    131  CH2       11.5890   14.8440   29.4500 C.ar   83  TRP83       0.0015
    132  N         16.1680   16.9120   21.6940 N.3   143  LEU143     -0.1245
    133  CA        16.2060   17.9650   22.6890 C.3   143  LEU143      0.1561
    134  C         17.6450   18.4980   22.5540 C.2   143  LEU143      0.2260
    135  O         18.5690   17.6730   22.5240 O.2   143  LEU143     -0.2867
    136  CB        15.9630   17.3640   24.1000 C.3   143  LEU143      0.0270
    137  CG        15.5170   18.3400   25.1920 C.3   143  LEU143      0.0019
    138  CD1       14.1180   18.7730   24.8270 C.3   143  LEU143      0.0001
    139  CD2       15.5070   17.7270   26.5910 C.3   143  LEU143      0.0001
    140  N         21.4960   20.3550   27.1540 N.3   146  CYS146     -0.1221
    141  CA        21.4880   21.2940   28.2740 C.3   146  CYS146      0.1808
    142  C         22.8500   21.4050   28.8830 C.2   146  CYS146      0.2601
    143  O         23.3630   22.4930   29.1200 O.2   146  CYS146     -0.2717
    144  CB        20.5080   20.8560   29.3160 C.3   146  CYS146      0.0970
    145  SG        18.8260   20.4840   28.6490 S.3   146  CYS146     -0.0800
    146  N         23.5650   20.3110   29.0630 N.am  147  HIS147     -0.1975
    147  CA        24.9320   20.3630   29.5560 C.3   147  HIS147      0.1656
    148  C         25.7680   20.2900   28.2910 C.2   147  HIS147      0.2291
    149  O         25.8820   19.2630   27.6510 O.2   147  HIS147     -0.2864
    150  CB        25.1880   19.2090   30.5350 C.3   147  HIS147      0.0771
    151  CG        24.7690   17.7960   30.2460 C.ar  147  HIS147      0.0820
    152  ND1       25.5910   16.7750   29.9670 N.ar  147  HIS147     -0.2267
    153  CD2       23.4780   17.2890   30.3220 C.ar  147  HIS147      0.1154
    154  CE1       24.8610   15.6760   29.8860 C.ar  147  HIS147      0.1986
    155  NE2       23.5940   15.9950   30.1000 N.ar  147  HIS147     -0.2212
    156  N         17.0810   23.1710   34.6650 N.3   169  ASP169     -0.1239
    157  CA        15.9020   23.0550   35.4950 C.3   169  ASP169      0.1674
    158  C         16.4770   22.7190   36.8720 C.2   169  ASP169      0.2266
    159  O         16.8800   21.5870   37.1750 O.2   169  ASP169     -0.2867
    160  CB        15.0670   21.9680   34.9070 C.3   169  ASP169      0.1410
    161  CG        13.8310   21.4680   35.6000 C.2   169  ASP169      0.3668
    162  OD1       13.7050   21.6140   36.8140 O.co2 169  ASP169     -0.2456
    163  OD2       13.0010   20.8710   34.9080 O.co2 169  ASP169     -0.2456
    164  N         14.4200   19.6580   39.1080 N.3   172  LEU172     -0.1231
    165  CA        14.4070   18.2890   38.6610 C.3   172  LEU172      0.1693
    166  C         15.7360   17.8800   38.0400 C.2   172  LEU172      0.2592
    167  O         16.3220   16.8880   38.4200 O.2   172  LEU172     -0.2718
    168  CB        13.2450   18.1830   37.6910 C.3   172  LEU172      0.0284
    169  CG        12.3850   16.8730   37.6660 C.3   172  LEU172      0.0019
    170  CD1       11.7980   16.4970   39.0380 C.3   172  LEU172      0.0001
    171  CD2       11.2280   17.1190   36.7400 C.3   172  LEU172      0.0001
    172  N         16.2890   18.6470   37.1160 N.am  173  GLY173     -0.1957
    173  CA        17.4720   18.2440   36.3940 C.3   173  GLY173      0.1869
    174  C         18.7880   18.4420   37.1230 C.2   173  GLY173      0.2309
    175  O         19.6180   17.5180   37.1570 O.2   173  GLY173     -0.2863
    176  N         20.0380   18.3300   40.3750 N.3   175  PRO175     -0.2102
    177  CA        20.6140   17.2830   41.2030 C.3   175  PRO175      0.1504
    178  C         21.1680   16.0760   40.4060 C.2   175  PRO175      0.2576
    179  O         22.1940   15.4620   40.7720 O.2   175  PRO175     -0.2718
    180  CB        19.4780   17.0020   42.1780 C.3   175  PRO175      0.0282
    181  CG        18.1940   17.5140   41.5960 C.3   175  PRO175      0.0208
    182  CD        18.6440   18.6380   40.7060 C.3   175  PRO175      0.0893
    183  N         20.6130   15.7510   39.2350 N.am  176  PHE176     -0.1963
    184  CA        21.0950   14.6820   38.3620 C.3   176  PHE176      0.1771
    185  C         22.3640   15.1260   37.6640 C.2   176  PHE176      0.2619
    186  O         23.3460   14.4010   37.5910 O.2   176  PHE176     -0.2715
    187  CB        20.1050   14.3640   37.2790 C.3   176  PHE176      0.0574
    188  CG        19.1780   13.2010   37.5420 C.ar  176  PHE176     -0.0200
    189  CD1       18.3760   13.1850   38.6640 C.ar  176  PHE176     -0.0042
    190  CD2       19.1650   12.1550   36.6410 C.ar  176  PHE176     -0.0042
    191  CE1       17.5470   12.1090   38.9070 C.ar  176  PHE176     -0.0003
    192  CE2       18.3290   11.0890   36.9010 C.ar  176  PHE176     -0.0003
    193  CZ        17.5260   11.0640   38.0270 C.ar  176  PHE176     -0.0000
    194  N         22.4170   16.3230   37.1000 N.am  177  ASN177     -0.1972
    195  CA        23.6300   16.8160   36.4530 C.3   177  ASN177      0.1688
    196  C         24.7980   17.0530   37.3400 C.2   177  ASN177      0.2292
    197  O         25.9080   16.8770   36.8690 O.2   177  ASN177     -0.2864
    198  CB        23.3900   18.1060   35.7430 C.3   177  ASN177      0.1181
    199  CG        22.3850   17.9020   34.6590 C.2   177  ASN177      0.2629
    200  OD1       21.4530   18.6670   34.5200 O.2   177  ASN177     -0.2716
    201  ND2       22.5120   16.8720   33.8470 N.am  177  ASN177     -0.0877
    202  N         10.5770   25.9280   37.2410 N.3   209  TYR209     -0.1241
    203  CA         9.2990   26.0250   36.5340 C.3   209  TYR209      0.1605
    204  C          8.1930   26.4700   37.4830 C.2   209  TYR209      0.2264
    205  O          8.1730   26.0420   38.6460 O.2   209  TYR209     -0.2867
    206  CB         8.9150   24.6590   35.9230 C.3   209  TYR209      0.0534
    207  CG         9.6910   24.3620   34.6460 C.ar  209  TYR209     -0.0201
    208  CD1        9.2360   24.9310   33.4670 C.ar  209  TYR209     -0.0009
    209  CD2       10.8810   23.6090   34.6830 C.ar  209  TYR209     -0.0009
    210  CE1        9.9920   24.7560   32.3020 C.ar  209  TYR209      0.0417
    211  CE2       11.6340   23.4500   33.5210 C.ar  209  TYR209      0.0417
    212  CZ        11.1800   24.0290   32.3340 C.ar  209  TYR209      0.1957
    213  OH        11.9150   23.8960   31.1720 O.3   209  TYR209     -0.2866
    214  N         10.3530   14.2800   46.8550 N.3   258  ILE258     -0.1231
    215  CA         9.3340   15.2610   46.5190 C.3   258  ILE258      0.1692
    216  C          9.0020   15.0260   45.0370 C.2   258  ILE258      0.2592
    217  O          9.8280   15.2700   44.1670 O.2   258  ILE258     -0.2718
    218  CB         9.8860   16.6950   46.7460 C.3   258  ILE258      0.0266
    219  CG1       10.4480   16.8060   48.1570 C.3   258  ILE258      0.0019
    220  CG2        8.7920   17.7300   46.5100 C.3   258  ILE258      0.0020
    221  CD1       10.9880   18.1620   48.4740 C.3   258  ILE258      0.0001
    222  N          7.8260   14.5400   44.6490 N.am  259  LYS259     -0.1966
    223  CA         7.5320   14.3070   43.2270 C.3   259  LYS259      0.1728
    224  C          7.2450   15.6180   42.5120 C.2   259  LYS259      0.2616
    225  O          6.6410   16.4870   43.1260 O.2   259  LYS259     -0.2715
    226  CB         6.3190   13.3950   43.0790 C.3   259  LYS259      0.0311
    227  CG         6.4420   11.9910   43.6980 C.3   259  LYS259      0.0038
    228  CD         7.3150   10.9950   42.9020 C.3   259  LYS259      0.0206
    229  CE         8.5920   10.5070   43.6450 C.3   259  LYS259      0.1093
    230  NZ         9.7020   11.4660   43.6690 N.3   259  LYS259     -0.1314
    231  N          7.6680   15.8520   41.2840 N.am  260  ALA260     -0.1977
    232  CA         7.3240   17.0720   40.5510 C.3   260  ALA260      0.1597
    233  C          7.0720   16.6910   39.0850 C.2   260  ALA260      0.2287
    234  O          7.6080   15.6420   38.6980 O.2   260  ALA260     -0.2864
    235  CB         8.4560   18.0410   40.5810 C.3   260  ALA260      0.0319
    236  N          7.6540   16.8630   34.7980 N.3   262  VAL262     -0.1231
    237  CA         8.6960   17.2990   33.9020 C.3   262  VAL262      0.1692
    238  C          7.9380   18.1700   32.9170 C.2   262  VAL262      0.2591
    239  O          6.8410   17.7740   32.5370 O.2   262  VAL262     -0.2718
    240  CB         9.3520   16.2320   32.9880 C.3   262  VAL262      0.0266
    241  CG1       10.8230   16.6410   32.8710 C.3   262  VAL262      0.0020
    242  CG2        9.2050   14.8320   33.4590 C.3   262  VAL262      0.0020
    243  N          8.4860   19.2840   32.4260 N.am  263  ALA263     -0.1980
    244  CA         7.8780   20.0850   31.3760 C.3   263  ALA263      0.1597
    245  C          8.4580   19.5150   30.0860 C.2   263  ALA263      0.2287
    246  O          9.6670   19.4640   30.0180 O.2   263  ALA263     -0.2864
    247  CB         8.3040   21.5040   31.5490 C.3   263  ALA263      0.0319
@<TRIPOS>BOND
     1   132   133    1
     2   121   120    2
     3   135   134    2
     4   134   133    1
     5   133   136    1
     6   120   119    1
     7     6     7    1
     8     6     5    1
     9   119   122    1
    10   119   118    1
    11     7     8    1
    12   136   137    1
    13     8     9    2
    14     4     3    2
    15   122   123    1
    16     5     2    1
    17   138   137    1
    18     2     3    1
    19     2     1    1
    20   124   123   ar
    21   124   126   ar
    22   137   139    1
    23     3    12   am
    24    11     9    1
    25     9    10    1
    26   123   125   ar
    27   126   127   ar
    28    12    13    1
    29   107   106    2
    30   125   127   ar
    31   125   128   ar
    32   116   114   ar
    33   116   117   ar
    34    13    14    1
    35    13    16    1
    36   114   111   ar
    37   140   141    1
    38   127   129   ar
    39    14    15    2
    40   117   115   ar
    41   149   148    2
    42   128   130   ar
    43   106   105    1
    44   111   109   ar
    45   111   113   ar
    46    18    16    1
    47   108   109    1
    48   108   105    1
    49    16    17    1
    50   141   142    1
    51   141   144    1
    52   148   147    1
    53   109   110   ar
    54   115   113   ar
    55   129   131   ar
    56   113   112   ar
    57   105   104    1
    58   145   144    1
    59   142   146   am
    60   142   143    2
    61   146   147    1
    62   130   131   ar
    63   110   112   ar
    64   147   150    1
    65   154   152   ar
    66   154   155   ar
    67   152   151   ar
    68   104    98   am
    69   246   245    2
    70   245   244    1
    71   155   153   ar
    72   151   153   ar
    73   151   150    1
    74    75    74    2
    75    99    98    2
    76    98    97    1
    77   213   212    1
    78    80    78   ar
    79    77    78    1
    80    77    76    1
    81    92    91    2
    82   244   247    1
    83   244   243    1
    84    74    73    1
    85    78    79   ar
    86    91    90    1
    87    91    96   am
    88    73    76    1
    89    73    72    1
    90    90    93    1
    91    90    89    1
    92   210   212   ar
    93   210   208   ar
    94   212   211   ar
    95    97    96    1
    96    97   100    1
    97   243   238   am
    98   101   103    1
    99   101   100    1
   100   239   238    2
   101    95    93    1
   102    93    94    1
   103   241   240    1
   104   238   237    1
   105   240   242    1
   106   240   237    1
   107   100   102    1
   108   208   207   ar
   109   211   209   ar
   110    81    82    1
   111   201   199   am
   112   237   236    1
   113    82    83    1
   114    82    85    1
   115    88    86   am
   116    83    84    2
   117   200   199    2
   118   207   209   ar
   119   207   206    1
   120   199   198    1
   121   156   157    1
   122   160   157    1
   123   160   161    1
   124   163   161   ar
   125    86    85    1
   126    86    87    2
   127    69    68    2
   128   157   158    1
   129   161   162   ar
   130   198   195    1
   131   206   203    1
   132   173   172    1
   133   173   174    1
   134   195   194    1
   135   195   196    1
   136    68    67    1
   137   203   202    1
   138   203   204    1
   139   190   192   ar
   140   190   188   ar
   141   171   169    1
   142   197   196    2
   143   158   159    2
   144    67    70    1
   145    67    66    1
   146   192   193   ar
   147    70    71    1
   148   194   185   am
   149   172   166   am
   150   174   175    2
   151    58    57    2
   152   187   188    1
   153   187   184    1
   154   204   205    2
   155   188   189   ar
   156   186   185    2
   157   185   184    1
   158   169   168    1
   159   169   170    1
   160   168   165    1
   161   193   191   ar
   162   166   167    2
   163   166   165    1
   164    66    57   am
   165    57    56    1
   166   184   183    1
   167   165   164    1
   168   189   191   ar
   169   234   233    2
   170    60    61    1
   171    60    59    1
   172   233   232    1
   173    62    63    2
   174    62    61    1
   175    64    63    1
   176    63    65    1
   177   183   178   am
   178    56    59    1
   179    56    55    1
   180    51    53   ar
   181    51    50   ar
   182    53    54   ar
   183   176   182    1
   184   176   177    1
   185   178   179    2
   186   178   177    1
   187    48    47    2
   188   232   235    1
   189   232   231    1
   190   182   181    1
   191    50    49    1
   192    50    52   ar
   193   177   180    1
   194    54    52   ar
   195   231   224   am
   196    49    46    1
   197   181   180    1
   198    47    46    1
   199    46    45    1
   200   224   225    2
   201   224   223    1
   202    45    41   am
   203   228   229    1
   204   228   227    1
   205    27    26    1
   206   226   223    1
   207   226   227    1
   208   223   222    1
   209   229   230    1
   210    43    44    1
   211    43    40    1
   212    26    25    1
   213    41    40    1
   214    41    42    2
   215   217   216    2
   216    40    39    1
   217   222   216   am
   218   216   215    1
   219    25    24    1
   220    31    30    2
   221    39    30   am
   222    30    29    1
   223    24    23    1
   224   220   218    1
   225   215   218    1
   226   215   214    1
   227   218   219    1
   228    23    20    1
   229    29    32    1
   230    29    28    1
   231    33    32    1
   232    33    34    1
   233   219   221    1
   234    22    21    2
   235    34    35    1
   236    28    21   am
   237    21    20    1
   238    20    19    1
   239    35    36    2
   240    37    36    1
   241    36    38    1
