@<TRIPOS>MOLECULE
tmp/2bbqB01.pdb
 235 228 0 0 0
SMALL
GASTEIGER

@<TRIPOS>ATOM
      1  N         52.2860   25.6030   26.9510 N.3    21  ARG21      -0.1245
      2  CA        52.8030   25.2730   25.6410 C.3    21  ARG21       0.1563
      3  C         53.8080   26.2640   25.0670 C.2    21  ARG21       0.2260
      4  O         54.7200   25.9310   24.3240 O.2    21  ARG21      -0.2867
      5  CB        51.6570   25.1100   24.6780 C.3    21  ARG21       0.0307
      6  CG        50.8230   26.3230   24.3980 C.3    21  ARG21       0.0489
      7  CD        50.3260   26.3460   22.9490 C.3    21  ARG21       0.2205
      8  NE        49.7280   27.6560   22.8300 N.pl3  21  ARG21      -0.0865
      9  CZ        50.3000   28.6400   22.1470 C.cat  21  ARG21       0.5346
     10  NH1       51.3920   28.4220   21.4060 N.pl3  21  ARG21       0.1354
     11  NH2       49.7210   29.8310   22.1580 N.pl3  21  ARG21       0.1354
     12  N         45.0820   50.9980   32.6370 N.3    48  LYS48      -0.1231
     13  CA        46.1080   51.0220   31.6270 C.3    48  LYS48       0.1693
     14  C         45.2720   51.4350   30.4530 C.2    48  LYS48       0.2595
     15  O         44.1050   51.0730   30.3610 O.2    48  LYS48      -0.2718
     16  CB        46.7250   49.6440   31.4130 C.3    48  LYS48       0.0285
     17  CG        46.6070   48.9940   30.0520 C.3    48  LYS48       0.0035
     18  CD        46.9280   47.5630   30.2230 C.3    48  LYS48       0.0206
     19  CE        46.2420   46.7890   29.1480 C.3    48  LYS48       0.1093
     20  NZ        46.8660   45.4940   29.2000 N.3    48  LYS48      -0.1314
     21  N         45.7820   52.3000   29.6270 N.am   49  ARG49      -0.1920
     22  CA        45.0780   52.7020   28.4500 C.3    49  ARG49       0.1945
     23  C         44.9540   51.5570   27.4370 C.2    49  ARG49       0.2659
     24  O         45.9550   50.9940   26.9690 O.2    49  ARG49      -0.2711
     25  CB        45.8430   53.9300   27.8810 C.2    49  ARG49       0.0033
     26  CG        45.8760   54.0540   26.3530 C.2    49  ARG49       0.0179
     27  CD        46.2450   55.3870   25.7780 C.3    49  ARG49       0.2464
     28  NE        44.9880   56.0050   25.4460 N.pl3  49  ARG49      -0.0815
     29  CZ        44.6130   57.1470   26.0250 C.cat  49  ARG49       0.5349
     30  NH1       45.4200   57.8320   26.8550 N.pl3  49  ARG49       0.1354
     31  NH2       43.3960   57.6150   25.7340 N.pl3  49  ARG49       0.1354
     32  N         43.7220   51.1750   27.1280 N.am   50  CYS50      -0.1951
     33  CA        43.4170   50.2120   26.0610 C.3    50  CYS50       0.1843
     34  C         43.1980   50.7850   24.6600 C.2    50  CYS50       0.2625
     35  O         42.5150   51.8000   24.4850 O.2    50  CYS50      -0.2714
     36  CB        42.1750   49.4170   26.4140 C.3    50  CYS50       0.0997
     37  SG        42.6210   48.3670   27.8070 S.3    50  CYS50      -0.0797
     38  N         43.7120   50.0790   23.6460 N.am   51  HIS51      -0.1973
     39  CA        43.6510   50.4320   22.2440 C.3    51  HIS51       0.1656
     40  C         42.3930   49.9740   21.4810 C.2    51  HIS51       0.2291
     41  O         42.3730   48.9920   20.7470 O.2    51  HIS51      -0.2864
     42  CB        44.9460   49.8810   21.6400 C.3    51  HIS51       0.0771
     43  CG        45.2440   50.3130   20.2070 C.ar   51  HIS51       0.0820
     44  ND1       45.2800   51.5190   19.6250 N.ar   51  HIS51      -0.2267
     45  CD2       45.5360   49.4000   19.2340 C.ar   51  HIS51       0.1154
     46  CE1       45.5750   51.3750   18.3480 C.ar   51  HIS51       0.1986
     47  NE2       45.7240   50.0900   18.1340 N.ar   51  HIS51      -0.2212
     48  N         41.8420   48.4430   17.6930 N.3    54  SER54      -0.1217
     49  CA        42.1130   47.0280   17.5100 C.3    54  SER54       0.1889
     50  C         40.9080   46.1880   17.9190 C.2    54  SER54       0.2288
     51  O         40.4910   45.2790   17.1950 O.2    54  SER54      -0.2866
     52  CB        43.3500   46.6640   18.3300 C.3    54  SER54       0.2089
     53  OG        44.5080   47.2420   17.7430 O.3    54  SER54      -0.2183
     54  N         38.8450   44.2160   14.8820 N.3    58  GLU58      -0.1245
     55  CA        38.8840   42.7600   15.0640 C.3    58  GLU58       0.1567
     56  C         37.4340   42.2230   15.0980 C.2    58  GLU58       0.2260
     57  O         37.1370   41.2290   14.4140 O.2    58  GLU58      -0.2867
     58  CB        39.5970   42.4510   16.3650 C.3    58  GLU58       0.0388
     59  CG        39.6920   40.9680   16.5870 C.3    58  GLU58       0.1160
     60  CD        40.0620   40.4660   17.9670 C.2    58  GLU58       0.3649
     61  OE1       39.6130   41.0110   18.9910 O.co2  58  GLU58      -0.2457
     62  OE2       40.8230   39.5090   17.9940 O.co2  58  GLU58      -0.2457
     63  N         45.8020   48.9510    9.9010 N.3    76  ASN76      -0.1240
     64  CA        46.9590   48.9290   10.7950 C.3    76  ASN76       0.1653
     65  C         46.7500   48.3230   12.1640 C.2    76  ASN76       0.2266
     66  O         46.9720   48.9280   13.2260 O.2    76  ASN76      -0.2867
     67  CB        47.5090   50.3490   10.9640 C.3    76  ASN76       0.1155
     68  CG        47.9890   50.9010    9.6370 C.2    76  ASN76       0.2627
     69  OD1       49.0150   50.4970    9.0740 O.2    76  ASN76      -0.2716
     70  ND2       47.1980   51.8370    9.1120 N.am   76  ASN76      -0.0877
     71  N         47.6570   45.0150   14.0950 N.3    78  THR78      -0.1203
     72  CA        48.7910   44.1280   14.2250 C.3    78  THR78       0.1994
     73  C         48.6450   42.9310   15.1430 C.2    78  THR78       0.2618
     74  O         49.5110   42.0650   15.1090 O.2    78  THR78      -0.2717
     75  CB        49.9050   45.1480   14.5960 C.3    78  THR78       0.1784
     76  OG1       50.4830   45.3990   13.3180 O.3    78  THR78      -0.2211
     77  CG2       50.8620   44.7780   15.7160 C.3    78  THR78       0.0376
     78  N         47.5410   42.7770   15.8720 N.am   79  ILE79      -0.1965
     79  CA        47.4010   41.7560   16.9300 C.3    79  ILE79       0.1727
     80  C         47.5430   40.2750   16.6300 C.2    79  ILE79       0.2616
     81  O         48.0240   39.4930   17.4610 O.2    79  ILE79      -0.2715
     82  CB        46.0340   41.9630   17.6710 C.3    79  ILE79       0.0290
     83  CG1       44.7930   41.9830   16.7560 C.3    79  ILE79       0.0022
     84  CG2       46.2010   43.2730   18.4550 C.3    79  ILE79       0.0023
     85  CD1       43.5030   42.2310   17.5630 C.3    79  ILE79       0.0001
     86  N         47.1480   39.9330   15.4080 N.am   80  TRP80      -0.1974
     87  CA        47.1590   38.5730   14.9360 C.3    80  TRP80       0.1640
     88  C         48.2930   38.3200   13.9790 C.2    80  TRP80       0.2290
     89  O         48.2600   37.3030   13.2810 O.2    80  TRP80      -0.2864
     90  CB        45.8400   38.2110   14.2060 C.3    80  TRP80       0.0576
     91  CG        44.7230   37.8630   15.1820 C.ar   80  TRP80       0.0006
     92  CD1       43.7300   38.7680   15.4170 C.ar   80  TRP80       0.0946
     93  CD2       44.6170   36.7070   15.9320 C.ar   80  TRP80       0.0152
     94  NE1       42.9960   38.2020   16.3380 N.ar   80  TRP80      -0.2442
     95  CE2       43.4790   36.9900   16.6860 C.ar   80  TRP80       0.0810
     96  CE3       45.2810   35.4960   16.1190 C.ar   80  TRP80       0.0012
     97  CZ2       42.9890   36.0770   17.6260 C.ar   80  TRP80       0.0191
     98  CZ3       44.7910   34.5910   17.0600 C.ar   80  TRP80       0.0001
     99  CH2       43.6520   34.8830   17.8040 C.ar   80  TRP80       0.0015
    100  N         51.5520   37.2290   14.4230 N.3    82  GLU82      -0.1231
    101  CA        52.4860   36.1260   14.5890 C.3    82  GLU82       0.1699
    102  C         51.9510   34.6970   14.6010 C.2    82  GLU82       0.2592
    103  O         52.7240   33.7580   14.8280 O.2    82  GLU82      -0.2718
    104  CB        53.3340   36.3540   15.8580 C.3    82  GLU82       0.0402
    105  CG        52.7920   36.9700   17.1220 C.3    82  GLU82       0.1161
    106  CD        52.5840   38.4860   17.1300 C.2    82  GLU82       0.3649
    107  OE1       53.5620   39.2220   17.3030 O.co2  82  GLU82      -0.2457
    108  OE2       51.4330   38.9250   16.9880 O.co2  82  GLU82      -0.2457
    109  N         50.6360   34.4910   14.3780 N.am   83  TRP83      -0.1976
    110  CA        50.0740   33.1500   14.2480 C.3    83  TRP83       0.1640
    111  C         49.5910   32.9450   12.8080 C.2    83  TRP83       0.2290
    112  O         49.1930   31.8360   12.4460 O.2    83  TRP83      -0.2864
    113  CB        48.9030   32.9500   15.2510 C.3    83  TRP83       0.0576
    114  CG        49.4250   33.0340   16.6720 C.ar   83  TRP83       0.0006
    115  CD1       49.9980   31.9630   17.3310 C.ar   83  TRP83       0.0946
    116  CD2       49.5010   34.2090   17.3950 C.ar   83  TRP83       0.0152
    117  NE1       50.4630   32.4680   18.4700 N.ar   83  TRP83      -0.2442
    118  CE2       50.1790   33.8020   18.5460 C.ar   83  TRP83       0.0810
    119  CE3       49.0950   35.5210   17.1990 C.ar   83  TRP83       0.0012
    120  CZ2       50.4540   34.7520   19.5150 C.ar   83  TRP83       0.0191
    121  CZ3       49.3760   36.4520   18.1760 C.ar   83  TRP83       0.0001
    122  CH2       50.0560   36.0740   19.3220 C.ar   83  TRP83       0.0015
    123  N         45.5400   28.8920   16.0070 N.3   143  LEU143     -0.1245
    124  CA        45.5070   28.9010   17.4530 C.3   143  LEU143      0.1561
    125  C         44.0560   28.5510   17.7100 C.2   143  LEU143      0.2260
    126  O         43.1690   29.0870   17.0300 O.2   143  LEU143     -0.2867
    127  CB        45.8030   30.2830   18.0100 C.3   143  LEU143      0.0270
    128  CG        46.1130   30.4510   19.4990 C.3   143  LEU143      0.0019
    129  CD1       47.4150   29.7820   19.8990 C.3   143  LEU143      0.0001
    130  CD2       46.3590   31.9170   19.7770 C.3   143  LEU143      0.0001
    131  N         40.1580   30.9340   21.9960 N.3   146  CYS146     -0.1221
    132  CA        40.1990   31.1600   23.4390 C.3   146  CYS146      0.1808
    133  C         38.8320   31.5640   23.9490 C.2   146  CYS146      0.2601
    134  O         38.3400   31.1080   24.9780 O.2   146  CYS146     -0.2717
    135  CB        41.1020   32.2550   23.7980 C.3   146  CYS146      0.0970
    136  SG        42.7890   31.9980   23.2410 S.3   146  CYS146     -0.0800
    137  N         38.1520   32.4290   23.2190 N.am  147  HIS147     -0.1975
    138  CA        36.8220   32.8130   23.5990 C.3   147  HIS147      0.1656
    139  C         36.0330   31.8300   22.7560 C.2   147  HIS147      0.2291
    140  O         35.9150   32.0210   21.5590 O.2   147  HIS147     -0.2864
    141  CB        36.5960   34.2670   23.2510 C.3   147  HIS147      0.0771
    142  CG        36.9270   34.9040   21.9030 C.ar  147  HIS147      0.0820
    143  ND1       36.1530   35.1040   20.8330 N.ar  147  HIS147     -0.2267
    144  CD2       38.1330   35.4990   21.6310 C.ar  147  HIS147      0.1154
    145  CE1       36.8360   35.7930   19.9580 C.ar  147  HIS147      0.1986
    146  NE2       38.0210   36.0180   20.4470 N.ar  147  HIS147     -0.2212
    147  N         44.5970   35.0660   29.0420 N.3   169  ASP169     -0.1239
    148  CA        45.7810   35.7830   29.4870 C.3   169  ASP169      0.1674
    149  C         45.2050   37.0310   30.1550 C.2   169  ASP169      0.2266
    150  O         44.7520   37.9670   29.4720 O.2   169  ASP169     -0.2867
    151  CB        46.5870   36.1320   28.2810 C.3   169  ASP169      0.1410
    152  CG        47.8680   36.9400   28.4750 C.2   169  ASP169      0.3668
    153  OD1       47.9920   37.7770   29.3860 O.co2 169  ASP169     -0.2456
    154  OD2       48.7370   36.7620   27.6270 O.co2 169  ASP169     -0.2456
    155  N         46.9890   40.5980   29.1710 N.3   172  LEU172     -0.1231
    156  CA        46.9390   41.0820   27.8130 C.3   172  LEU172      0.1693
    157  C         45.6810   40.8290   27.0210 C.2   172  LEU172      0.2592
    158  O         45.1490   41.7530   26.4140 O.2   172  LEU172     -0.2718
    159  CB        48.1040   40.4860   27.1410 C.3   172  LEU172      0.0284
    160  CG        48.8950   41.2550   26.1340 C.3   172  LEU172      0.0019
    161  CD1       49.5160   42.5840   26.6240 C.3   172  LEU172      0.0001
    162  CD2       49.9890   40.2530   25.7900 C.3   172  LEU172      0.0001
    163  N         45.1470   39.6140   26.9970 N.am  173  GLY173     -0.1957
    164  CA        43.9600   39.3350   26.1920 C.3   173  GLY173      0.1869
    165  C         42.6710   39.7410   26.8770 C.2   173  GLY173      0.2309
    166  O         41.8160   40.3260   26.2380 O.2   173  GLY173     -0.2863
    167  N         40.8210   43.1200   26.2700 N.3   176  PHE176     -0.1227
    168  CA        40.3610   43.1310   24.8940 C.3   176  PHE176      0.1736
    169  C         39.1110   42.2820   24.7190 C.2   176  PHE176      0.2595
    170  O         38.1500   42.7070   24.0830 O.2   176  PHE176     -0.2718
    171  CB        41.4210   42.5830   23.9320 C.3   176  PHE176      0.0547
    172  CG        42.3230   43.5770   23.2050 C.ar  176  PHE176     -0.0202
    173  CD1       43.2420   44.3830   23.8870 C.ar  176  PHE176     -0.0042
    174  CD2       42.2670   43.6840   21.8160 C.ar  176  PHE176     -0.0042
    175  CE1       44.1010   45.2870   23.2100 C.ar  176  PHE176     -0.0003
    176  CE2       43.1240   44.5860   21.1580 C.ar  176  PHE176     -0.0003
    177  CZ        44.0520   45.3970   21.8370 C.ar  176  PHE176     -0.0000
    178  N         39.0830   41.0660   25.2670 N.am  177  ASN177     -0.1974
    179  CA        37.9160   40.2020   25.1910 C.3   177  ASN177      0.1688
    180  C         36.6760   40.7830   25.8360 C.2   177  ASN177      0.2292
    181  O         35.6010   40.6110   25.2670 O.2   177  ASN177     -0.2864
    182  CB        38.1470   38.8740   25.8650 C.3   177  ASN177      0.1181
    183  CG        39.0500   38.0110   25.0400 C.2   177  ASN177      0.2629
    184  OD1       40.0500   37.4700   25.5010 O.2   177  ASN177     -0.2716
    185  ND2       38.7540   37.8500   23.7760 N.am  177  ASN177     -0.0877
    186  N         51.0820   35.2460   32.8710 N.3   209  TYR209     -0.1241
    187  CA        52.4090   34.7840   32.4560 C.3   209  TYR209      0.1605
    188  C         53.5470   35.2870   33.3030 C.2   209  TYR209      0.2264
    189  O         53.4640   36.4470   33.7160 O.2   209  TYR209     -0.2867
    190  CB        52.7340   35.2030   31.0330 C.3   209  TYR209      0.0534
    191  CG        52.0000   34.3290   30.0270 C.ar  209  TYR209     -0.0201
    192  CD1       52.5180   33.1220   29.6350 C.ar  209  TYR209     -0.0009
    193  CD2       50.7890   34.7490   29.5500 C.ar  209  TYR209     -0.0009
    194  CE1       51.8180   32.3350   28.7570 C.ar  209  TYR209      0.0417
    195  CE2       50.0850   33.9720   28.6760 C.ar  209  TYR209      0.0417
    196  CZ        50.6060   32.7820   28.2850 C.ar  209  TYR209      0.1957
    197  OH        49.9000   32.0350   27.3960 O.3   209  TYR209     -0.2866
    198  N         49.5460   53.7070   29.1620 N.3   257  GLY257     -0.1210
    199  CA        49.6760   52.4240   28.4980 C.3   257  GLY257      0.1956
    200  C         50.1420   51.1240   29.1580 C.2   257  GLY257      0.2612
    201  O         49.3700   50.1660   29.1730 O.2   257  GLY257     -0.2717
    202  N         51.3500   50.9860   29.6760 N.am  258  ILE258     -0.1965
    203  CA        51.9420   49.6920   30.1240 C.3   258  ILE258      0.1727
    204  C         52.1330   48.7210   28.9830 C.2   258  ILE258      0.2616
    205  O         51.2660   47.9950   28.5730 O.2   258  ILE258     -0.2715
    206  CB        51.1860   48.8550   31.1890 C.3   258  ILE258      0.0290
    207  CG1       50.7000   49.6350   32.3880 C.3   258  ILE258      0.0022
    208  CG2       52.2430   47.8990   31.7580 C.3   258  ILE258      0.0023
    209  CD1       49.9660   48.8070   33.4130 C.3   258  ILE258      0.0001
    210  N         53.3710   48.6550   28.5300 N.am  259  LYS259     -0.1963
    211  CA        53.7810   47.8440   27.4040 C.3   259  LYS259      0.1728
    212  C         54.1680   46.4340   27.8760 C.2   259  LYS259      0.2616
    213  O         54.9000   46.3070   28.8560 O.2   259  LYS259     -0.2715
    214  CB        54.9330   48.6570   26.7520 C.3   259  LYS259      0.0311
    215  CG        55.3320   48.3460   25.2910 C.3   259  LYS259      0.0038
    216  CD        56.1570   47.0430   25.2420 C.3   259  LYS259      0.0206
    217  CE        56.1610   46.2030   23.9600 C.3   259  LYS259      0.1093
    218  NZ        56.6800   44.8720   24.2760 N.3   259  LYS259     -0.1314
    219  N         53.7330   45.3390   27.2530 N.am  260  ALA260     -0.1977
    220  CA        54.1230   43.9840   27.6520 C.3   260  ALA260      0.1597
    221  C         54.1960   42.9400   26.5120 C.2   260  ALA260      0.2287
    222  O         53.4000   43.0290   25.5590 O.2   260  ALA260     -0.2864
    223  CB        53.1410   43.4470   28.6870 C.3   260  ALA260      0.0319
    224  N         54.1230   39.3300   24.2650 N.3   262  VAL262     -0.1231
    225  CA        53.1300   38.2870   24.0910 C.3   262  VAL262      0.1692
    226  C         53.8740   36.9910   23.8320 C.2   262  VAL262      0.2591
    227  O         54.8800   36.9520   23.1300 O.2   262  VAL262     -0.2718
    228  CB        52.1170   38.7480   22.9130 C.3   262  VAL262      0.0266
    229  CG1       52.7600   38.7630   21.5460 C.3   262  VAL262      0.0020
    230  CG2       50.8900   37.8400   22.9550 C.3   262  VAL262      0.0020
    231  N         53.4320   35.9790   24.5690 N.am  263  ALA263     -0.1980
    232  CA        53.9580   34.6180   24.5280 C.3   263  ALA263      0.1597
    233  C         53.3340   33.9470   23.3370 C.2   263  ALA263      0.2287
    234  O         52.1010   33.9830   23.2750 O.2   263  ALA263     -0.2864
    235  CB        53.5410   33.8890   25.7470 C.3   263  ALA263      0.0319
@<TRIPOS>BOND
     1    69    68    2
     2    70    68   am
     3    68    67    1
     4    63    64    1
     5    64    67    1
     6    64    65    1
     7    65    66    2
     8   112   111    2
     9   111   110    1
    10    89    88    2
    11    76    75    1
    12    88    87    1
    13    71    72    1
    14    90    87    1
    15    90    91    1
    16    72    75    1
    17    72    73    1
    18   110   109    1
    19   110   113    1
    20   109   102   am
    21    57    56    2
    22   100   101    1
    23   101   102    1
    24   101   104    1
    25    75    77    1
    26   102   103    2
    27    54    55    1
    28    87    86    1
    29    55    56    1
    30    55    58    1
    31    74    73    2
    32    73    78   am
    33    91    92   ar
    34    91    93   ar
    35   113   114    1
    36    86    80   am
    37    92    94   ar
    38   104   105    1
    39    78    79    1
    40    93    96   ar
    41    93    95   ar
    42   123   124    1
    43    96    98   ar
    44    94    95   ar
    45    58    59    1
    46    59    60    1
    47    80    79    1
    48    80    81    2
    49   114   115   ar
    50   114   116   ar
    51    95    97   ar
    52    83    85    1
    53    83    82    1
    54    79    82    1
    55   108   106   ar
    56   126   125    2
    57    98    99   ar
    58   105   106    1
    59   106   107   ar
    60    51    50    2
    61   119   116   ar
    62   119   121   ar
    63   115   117   ar
    64   116   118   ar
    65   124   125    1
    66   124   127    1
    67    49    48    1
    68    49    50    1
    69    49    52    1
    70    97    99   ar
    71    82    84    1
    72    53    52    1
    73    60    62   ar
    74    60    61   ar
    75   127   128    1
    76    47    46   ar
    77    47    45   ar
    78   121   122   ar
    79    46    44   ar
    80   117   118   ar
    81   118   120   ar
    82    45    43   ar
    83   122   120   ar
    84   128   130    1
    85   128   129    1
    86    44    43   ar
    87   145   146   ar
    88   145   143   ar
    89    43    42    1
    90   146   144   ar
    91    41    40    2
    92   143   142   ar
    93   176   174   ar
    94   176   177   ar
    95    10     9    1
    96    40    39    1
    97   229   228    1
    98   140   139    2
    99   144   142   ar
   100    42    39    1
   101   174   172   ar
   102   177   175   ar
   103   142   141    1
   104   131   132    1
   105     9    11    1
   106     9     8    2
   107    39    38    1
   108   139   138    1
   109     8     7    1
   110   228   230    1
   111   228   225    1
   112     7     6    1
   113   227   226    2
   114   172   173   ar
   115   172   171    1
   116   175   173   ar
   117   137   138    1
   118   137   133   am
   119   136   135    1
   120   141   138    1
   121   234   233    2
   122   233   232    1
   123   132   135    1
   124   132   133    1
   125    38    34   am
   126   185   183   am
   127   226   225    1
   128   226   231   am
   129   171   168    1
   130   133   134    2
   131   217   218    1
   132   217   216    1
   133   170   169    2
   134   225   224    1
   135     4     3    2
   136     6     5    1
   137    35    34    2
   138   232   231    1
   139   232   235    1
   140    34    33    1
   141     5     2    1
   142   169   168    1
   143   169   178   am
   144   168   167    1
   145   183   184    2
   146   183   182    1
   147     3     2    1
   148   179   178    1
   149   179   180    1
   150   179   182    1
   151   216   215    1
   152   181   180    2
   153   215   214    1
   154    28    27    1
   155    28    29    2
   156   222   221    2
   157     2     1    1
   158    31    29    1
   159    27    26    1
   160   162   160    1
   161    29    30    1
   162    33    36    1
   163    33    32    1
   164   160   161    1
   165   160   159    1
   166   164   165    1
   167   164   163    1
   168   166   165    2
   169    26    25    2
   170    36    37    1
   171   158   157    2
   172   221   220    1
   173   214   211    1
   174    24    23    2
   175   163   157   am
   176   157   156    1
   177    32    23   am
   178   159   156    1
   179   219   220    1
   180   219   212   am
   181   197   196    1
   182   211   212    1
   183   211   210    1
   184    23    22    1
   185   154   152   ar
   186   220   223    1
   187   156   155    1
   188   212   213    2
   189    25    22    1
   190   151   152    1
   191   151   148    1
   192   196   195   ar
   193   196   194   ar
   194    22    21    1
   195   152   153   ar
   196   199   200    1
   197   199   198    1
   198   210   204   am
   199   205   204    2
   200   195   193   ar
   201   194   192   ar
   202   204   203    1
   203   147   148    1
   204    19    20    1
   205    19    18    1
   206   200   201    2
   207   200   202   am
   208   150   149    2
   209   148   149    1
   210   193   191   ar
   211    21    14   am
   212   192   191   ar
   213   202   203    1
   214   191   190    1
   215    17    18    1
   216    17    16    1
   217   203   206    1
   218    15    14    2
   219    14    13    1
   220   190   187    1
   221   206   208    1
   222   206   207    1
   223    16    13    1
   224    13    12    1
   225   207   209    1
   226   187   186    1
   227   187   188    1
   228   188   189    2
