@<TRIPOS>MOLECULE
tmp/2bccJ00.pdb
 82 78 0 0 0
SMALL
GASTEIGER

@<TRIPOS>ATOM
      1  N         47.7820  116.3590   46.9120 N.3    11  PHE11      -0.1227
      2  CA        47.1260  115.4930   47.8930 C.3    11  PHE11       0.1736
      3  C         47.9030  114.3500   48.5460 C.2    11  PHE11       0.2595
      4  O         47.6310  114.0080   49.6950 O.2    11  PHE11      -0.2718
      5  CB        45.8610  114.9180   47.2650 C.3    11  PHE11       0.0547
      6  CG        44.9850  115.9490   46.6350 C.ar   11  PHE11      -0.0202
      7  CD1       45.2420  117.3020   46.8070 C.ar   11  PHE11      -0.0042
      8  CD2       43.9130  115.5710   45.8520 C.ar   11  PHE11      -0.0042
      9  CE1       44.4440  118.2630   46.2000 C.ar   11  PHE11      -0.0003
     10  CE2       43.1050  116.5280   45.2370 C.ar   11  PHE11      -0.0003
     11  CZ        43.3700  117.8730   45.4110 C.ar   11  PHE11      -0.0000
     12  N         48.8540  113.7540   47.8380 N.am   12  ARG12      -0.1980
     13  CA        49.5950  112.6370   48.4010 C.3    12  ARG12       0.1597
     14  C         50.2800  112.9290   49.7360 C.2    12  ARG12       0.2287
     15  O         49.8220  112.4730   50.7840 O.2    12  ARG12      -0.2864
     16  CB        50.6360  112.1380   47.4140 C.3    12  ARG12       0.0334
     17  CG        51.2070  110.8060   47.8280 C.3    12  ARG12       0.0492
     18  CD        52.3720  110.3860   46.9810 C.3    12  ARG12       0.2205
     19  NE        52.8750  109.0960   47.4300 N.pl3  12  ARG12      -0.0865
     20  CZ        54.0580  108.5960   47.0890 C.cat  12  ARG12       0.5346
     21  NH1       54.8620  109.2840   46.2910 N.pl3  12  ARG12       0.1354
     22  NH2       54.4370  107.4060   47.5430 N.pl3  12  ARG12       0.1354
     23  N         51.0680  114.4910   53.0260 N.3    14  THR14      -0.1218
     24  CA        50.3300  115.2550   54.0380 C.3    14  THR14       0.1862
     25  C         50.8760  116.6730   54.1670 C.2    14  THR14       0.2287
     26  O         50.1600  117.6120   54.5220 O.2    14  THR14      -0.2866
     27  CB        50.4070  114.5580   55.4110 C.3    14  THR14       0.1770
     28  OG1       49.8550  113.2410   55.2950 O.3    14  THR14      -0.2211
     29  CG2       49.6330  115.3410   56.4640 C.3    14  THR14       0.0375
     30  N         49.6880  118.6990   50.8790 N.3    17  PHE17      -0.1227
     31  CA        48.2480  118.8130   51.0010 C.3    17  PHE17       0.1736
     32  C         47.8710  120.0770   51.7570 C.2    17  PHE17       0.2595
     33  O         47.2310  120.9730   51.2020 O.2    17  PHE17      -0.2718
     34  CB        47.7130  117.5600   51.6960 C.3    17  PHE17       0.0547
     35  CG        46.2240  117.5470   51.8920 C.ar   17  PHE17      -0.0202
     36  CD1       45.6390  118.2480   52.9380 C.ar   17  PHE17      -0.0042
     37  CD2       45.4010  116.8120   51.0400 C.ar   17  PHE17      -0.0042
     38  CE1       44.2600  118.2090   53.1390 C.ar   17  PHE17      -0.0003
     39  CE2       44.0170  116.7730   51.2340 C.ar   17  PHE17      -0.0003
     40  CZ        43.4500  117.4730   52.2850 C.ar   17  PHE17      -0.0000
     41  N         48.2800  120.1700   53.0160 N.am   18  ALA18      -0.1980
     42  CA        47.9570  121.3620   53.7980 C.3    18  ALA18       0.1597
     43  C         48.4010  122.6040   53.0410 C.2    18  ALA18       0.2287
     44  O         47.5870  123.4410   52.6530 O.2    18  ALA18      -0.2864
     45  CB        48.6400  121.3130   55.1530 C.3    18  ALA18       0.0319
     46  N         46.1240  123.8360   50.8290 N.3    21  ILE21      -0.1231
     47  CA        44.9000  124.3210   51.4630 C.3    21  ILE21       0.1692
     48  C         45.0990  125.7970   51.7730 C.2    21  ILE21       0.2591
     49  O         44.2420  126.6280   51.4940 O.2    21  ILE21      -0.2718
     50  CB        44.6180  123.6320   52.7990 C.3    21  ILE21       0.0266
     51  CG1       44.3280  122.1630   52.5620 C.3    21  ILE21       0.0019
     52  CG2       43.4310  124.2970   53.4930 C.3    21  ILE21       0.0020
     53  CD1       43.0910  121.9360   51.7240 C.3    21  ILE21       0.0001
     54  N         46.2350  126.1220   52.3710 N.am   22  VAL22      -0.1980
     55  CA        46.5040  127.5050   52.6860 C.3    22  VAL22       0.1595
     56  C         46.4810  128.3190   51.3910 C.2    22  VAL22       0.2287
     57  O         45.6290  129.1860   51.2260 O.2    22  VAL22      -0.2864
     58  CB        47.8540  127.6570   53.3970 C.3    22  VAL22       0.0276
     59  CG1       48.1110  129.1100   53.7010 C.3    22  VAL22       0.0022
     60  CG2       47.8490  126.8440   54.6860 C.3    22  VAL22       0.0022
     61  N         43.1050  128.5150   50.0050 N.3    25  ALA25      -0.1231
     62  CA        42.1790  129.3430   50.7620 C.3    25  ALA25       0.1694
     63  C         42.3360  130.7830   50.3070 C.2    25  ALA25       0.2591
     64  O         41.3530  131.4980   50.0970 O.2    25  ALA25      -0.2718
     65  CB        42.4750  129.2300   52.2500 C.3    25  ALA25       0.0304
     66  N         43.5870  131.1960   50.1480 N.am   26  LEU26      -0.1980
     67  CA        43.8900  132.5490   49.7240 C.3    26  LEU26       0.1596
     68  C         43.1960  132.8800   48.4310 C.2    26  LEU26       0.2287
     69  O         42.4560  133.8560   48.3390 O.2    26  LEU26      -0.2864
     70  CB        45.3930  132.7170   49.5650 C.3    26  LEU26       0.0297
     71  CG        46.0880  132.4390   50.9000 C.3    26  LEU26       0.0022
     72  CD1       47.5840  132.7000   50.7650 C.3    26  LEU26       0.0001
     73  CD2       45.4830  133.3320   51.9900 C.3    26  LEU26       0.0001
     74  N         39.4060  132.9300   48.5790 N.3    29  GLU29      -0.1245
     75  CA        38.9140  134.1360   49.2160 C.3    29  GLU29       0.1567
     76  C         38.8090  135.2710   48.1960 C.2    29  GLU29       0.2260
     77  O         37.7110  135.6100   47.7380 O.2    29  GLU29      -0.2867
     78  CB        39.8490  134.5460   50.3560 C.3    29  GLU29       0.0388
     79  CG        39.1370  135.3050   51.4550 C.3    29  GLU29       0.1160
     80  CD        40.0850  136.0130   52.3880 C.2    29  GLU29       0.3649
     81  OE1       41.2890  136.0830   52.0550 O.co2  29  GLU29      -0.2457
     82  OE2       39.6210  136.5120   53.4400 O.co2  29  GLU29      -0.2457
@<TRIPOS>BOND
     1    10    11   ar
     2    10     8   ar
     3    11     9   ar
     4     8     6   ar
     5     9     7   ar
     6    21    20    1
     7     6     7   ar
     8     6     5    1
     9     1     2    1
    10    18    19    1
    11    18    17    1
    12    20    19    2
    13    20    22    1
    14     5     2    1
    15    16    17    1
    16    16    13    1
    17    77    76    2
    18    12    13    1
    19    12     3   am
    20     2     3    1
    21    76    75    1
    22    69    68    2
    23    13    14    1
    24    68    67    1
    25     3     4    2
    26    74    75    1
    27    75    78    1
    28    70    67    1
    29    70    71    1
    30    67    66    1
    31    14    15    2
    32    61    62    1
    33    64    63    2
    34    66    63   am
    35    63    62    1
    36    78    79    1
    37    62    65    1
    38    72    71    1
    39    46    47    1
    40    30    31    1
    41    71    73    1
    42    31    34    1
    43    31    32    1
    44    37    39   ar
    45    37    35   ar
    46    33    32    2
    47    57    56    2
    48    39    40   ar
    49    56    55    1
    50    79    80    1
    51    47    48    1
    52    47    50    1
    53    49    48    2
    54    34    35    1
    55    53    51    1
    56    32    41   am
    57    48    54   am
    58    35    36   ar
    59    81    80   ar
    60    40    38   ar
    61    54    55    1
    62    80    82   ar
    63    51    50    1
    64    44    43    2
    65    55    58    1
    66    50    52    1
    67    36    38   ar
    68    41    42    1
    69    23    24    1
    70    43    42    1
    71    58    59    1
    72    58    60    1
    73    42    45    1
    74    24    25    1
    75    24    27    1
    76    25    26    2
    77    28    27    1
    78    27    29    1
