@<TRIPOS>MOLECULE
tmp/2bccC02.pdb
 176 167 0 0 0
SMALL
GASTEIGER

@<TRIPOS>ATOM
      1  N         40.3690  112.0980   75.3040 N.3    14  ILE14      -0.1245
      2  CA        39.8160  112.4050   73.9950 C.3    14  ILE14       0.1561
      3  C         39.7330  111.1100   73.1980 C.2    14  ILE14       0.2260
      4  O         38.6820  110.7690   72.6500 O.2    14  ILE14      -0.2867
      5  CB        40.7060  113.3700   73.2260 C.3    14  ILE14       0.0252
      6  CG1       41.0330  114.5760   74.0920 C.3    14  ILE14       0.0019
      7  CG2       39.9900  113.8450   71.9850 C.3    14  ILE14       0.0019
      8  CD1       41.9020  115.6020   73.3950 C.3    14  ILE14       0.0001
      9  N         36.9130  109.0390   74.2050 N.3    17  SER17      -0.1202
     10  CA        35.5810  109.6410   74.1110 C.3    17  SER17       0.2020
     11  C         35.1670  110.0320   72.6920 C.2    17  SER17       0.2618
     12  O         33.9830  110.0960   72.3920 O.2    17  SER17      -0.2717
     13  CB        35.5000  110.8660   75.0170 C.3    17  SER17       0.2103
     14  OG        35.7630  110.5020   76.3610 O.3    17  SER17      -0.2182
     15  N         36.1280  110.3030   71.8200 N.am   18  LEU18      -0.1979
     16  CA        35.7820  110.6670   70.4550 C.3    18  LEU18       0.1596
     17  C         36.5030  109.8390   69.4050 C.2    18  LEU18       0.2287
     18  O         36.3420  110.0620   68.2050 O.2    18  LEU18      -0.2864
     19  CB        36.0940  112.1320   70.1840 C.3    18  LEU18       0.0297
     20  CG        35.3400  113.2180   70.9230 C.3    18  LEU18       0.0022
     21  CD1       35.6530  113.1270   72.3910 C.3    18  LEU18       0.0001
     22  CD2       35.7670  114.5640   70.3720 C.3    18  LEU18       0.0001
     23  N         35.8910  105.2030   70.9600 N.3    21  LEU21      -0.1231
     24  CA        34.6690  104.9940   71.7030 C.3    21  LEU21       0.1678
     25  C         33.7900  104.1610   70.8030 C.2    21  LEU21       0.2434
     26  O         33.4960  104.5400   69.6710 O.2    21  LEU21      -0.2733
     27  CB        33.9800  106.3110   72.0360 C.3    21  LEU21       0.0284
     28  CG        32.6980  106.1200   72.8520 C.3    21  LEU21       0.0019
     29  CD1       32.9880  105.3220   74.1040 C.3    21  LEU21       0.0001
     30  CD2       32.1280  107.4700   73.2080 C.3    21  LEU21       0.0001
     31  N         33.3820  102.9890   71.2860 N.am   22  PRO22      -0.2718
     32  CA        32.5320  102.0470   70.5630 C.3    22  PRO22       0.1535
     33  C         31.1250  102.5820   70.4130 C.2    22  PRO22       0.2598
     34  O         30.4690  102.9180   71.3960 O.2    22  PRO22      -0.2715
     35  CB        32.5700  100.8060   71.4570 C.3    22  PRO22       0.0310
     36  CG        33.8640  100.9780   72.2330 C.3    22  PRO22       0.0237
     37  CD        33.7220  102.4270   72.5970 C.3    22  PRO22       0.0939
     38  N         30.6570  102.6620   69.1800 N.am   23  ALA23      -0.1978
     39  CA        29.3080  103.1410   68.9390 C.3    23  ALA23       0.1597
     40  C         28.5590  102.1890   68.0270 C.2    23  ALA23       0.2287
     41  O         29.1220  101.6210   67.1050 O.2    23  ALA23      -0.2864
     42  CB        29.3440  104.5180   68.3260 C.3    23  ALA23       0.0319
     43  N         23.0410  104.0340   63.5930 N.3    27  ILE27      -0.1245
     44  CA        22.5790  105.1790   64.3430 C.3    27  ILE27       0.1561
     45  C         22.1050  106.2500   63.4130 C.2    27  ILE27       0.2260
     46  O         22.8630  106.7570   62.5830 O.2    27  ILE27      -0.2867
     47  CB        23.6600  105.7260   65.2510 C.3    27  ILE27       0.0252
     48  CG1       23.5800  105.0520   66.6010 C.3    27  ILE27       0.0019
     49  CG2       23.4870  107.1930   65.4420 C.3    27  ILE27       0.0019
     50  CD1       24.4870  105.6830   67.5980 C.3    27  ILE27       0.0001
     51  N         20.3210  110.7490   66.5700 N.3    31  TRP31      -0.1241
     52  CA        21.3830  110.6560   67.5410 C.3    31  TRP31       0.1605
     53  C         22.3180  111.8490   67.3850 C.2    31  TRP31       0.2264
     54  O         23.2200  112.0420   68.1800 O.2    31  TRP31      -0.2867
     55  CB        22.1360  109.3460   67.3640 C.3    31  TRP31       0.0550
     56  CG        21.7500  108.3160   68.3900 C.ar   31  TRP31       0.0003
     57  CD1       22.3410  108.1090   69.6010 C.ar   31  TRP31       0.0946
     58  CD2       20.6220  107.4430   68.3460 C.ar   31  TRP31       0.0152
     59  NE1       21.6500  107.1640   70.3130 N.ar   31  TRP31      -0.2442
     60  CE2       20.5890  106.7400   69.5620 C.ar   31  TRP31       0.0810
     61  CE3       19.6340  107.1880   67.3960 C.ar   31  TRP31       0.0012
     62  CZ2       19.6060  105.8020   69.8520 C.ar   31  TRP31       0.0191
     63  CZ3       18.6590  106.2560   67.6870 C.ar   31  TRP31       0.0001
     64  CH2       18.6500  105.5750   68.9020 C.ar   31  TRP31       0.0015
     65  N         22.6480  116.2840   70.2880 N.3    34  GLY34      -0.1210
     66  CA        23.4090  115.8640   71.4460 C.3    34  GLY34       0.1956
     67  C         24.7130  116.5520   71.1580 C.2    34  GLY34       0.2612
     68  O         25.0660  117.5280   71.8090 O.2    34  GLY34      -0.2717
     69  N         25.4290  116.0520   70.1580 N.am   35  SER35      -0.1952
     70  CA        26.6670  116.6940   69.7460 C.3    35  SER35       0.1924
     71  C         26.2720  118.1120   69.3300 C.2    35  SER35       0.2314
     72  O         27.0090  119.0680   69.5610 O.2    35  SER35      -0.2863
     73  CB        27.3040  115.9360   68.5880 C.3    35  SER35       0.2116
     74  OG        26.3060  115.4390   67.7190 O.3    35  SER35      -0.2180
     75  N         25.7350  119.9930   72.5240 N.3    38  ALA38      -0.1231
     76  CA        26.9950  120.4120   73.0820 C.3    38  ALA38       0.1694
     77  C         27.4560  121.6390   72.3200 C.2    38  ALA38       0.2591
     78  O         27.8060  122.6420   72.9200 O.2    38  ALA38      -0.2718
     79  CB        27.9960  119.3260   72.9610 C.3    38  ALA38       0.0304
     80  N         27.4450  121.5770   70.9940 N.am   39  VAL39      -0.1980
     81  CA        27.8560  122.7320   70.1940 C.3    39  VAL39       0.1595
     82  C         27.0570  123.9930   70.5600 C.2    39  VAL39       0.2287
     83  O         27.6190  125.0790   70.6420 O.2    39  VAL39      -0.2864
     84  CB        27.7100  122.4530   68.6920 C.3    39  VAL39       0.0276
     85  CG1       28.1930  123.6450   67.8670 C.3    39  VAL39       0.0022
     86  CG2       28.5070  121.2440   68.3500 C.3    39  VAL39       0.0022
     87  N         28.4120  125.5570   73.4360 N.3    42  MET42      -0.1245
     88  CA        29.6490  126.2610   73.1100 C.3    42  MET42       0.1570
     89  C         29.2530  127.5890   72.5020 C.2    42  MET42       0.2261
     90  O         29.4540  128.6440   73.0880 O.2    42  MET42      -0.2867
     91  CB        30.4630  125.4630   72.1020 C.3    42  MET42       0.0387
     92  CG        30.7120  124.0280   72.5230 C.3    42  MET42       0.0595
     93  SD        31.8150  123.8140   73.9350 S.3    42  MET42      -0.1393
     94  CE        31.0230  124.7850   75.2800 C.3    42  MET42       0.0692
     95  N         26.6830  118.4270   81.8800 N.3   193  THR193     -0.1203
     96  CA        26.8190  117.7600   80.5860 C.3   193  THR193      0.1994
     97  C         27.9490  116.7330   80.6230 C.2   193  THR193      0.2617
     98  O         27.8680  115.6820   79.9790 O.2   193  THR193     -0.2717
     99  CB        27.0640  118.7480   79.4480 C.3   193  THR193      0.1784
    100  OG1       25.8280  119.3600   79.0880 O.3   193  THR193     -0.2211
    101  CG2       27.6020  118.0440   78.2400 C.3   193  THR193      0.0376
    102  N         29.0100  117.0290   81.3640 N.am  194  ILE194     -0.1979
    103  CA        30.1000  116.0610   81.5260 C.3   194  ILE194      0.1595
    104  C         29.5450  114.8150   82.2580 C.2   194  ILE194      0.2287
    105  O         29.6060  113.6950   81.7450 O.2   194  ILE194     -0.2864
    106  CB        31.2430  116.6320   82.3730 C.3   194  ILE194      0.0276
    107  CG1       31.9460  117.7370   81.6010 C.3   194  ILE194      0.0022
    108  CG2       32.2070  115.5260   82.7430 C.3   194  ILE194      0.0022
    109  CD1       32.5590  117.2370   80.3110 C.3   194  ILE194      0.0001
    110  N         27.2560  112.6140   79.9580 N.3   197  LEU197     -0.1245
    111  CA        27.9720  111.6960   79.0900 C.3   197  LEU197      0.1561
    112  C         28.6210  110.5570   79.8700 C.2   197  LEU197      0.2260
    113  O         28.7300  109.4310   79.3930 O.2   197  LEU197     -0.2867
    114  CB        29.0460  112.4390   78.3350 C.3   197  LEU197      0.0270
    115  CG        28.5140  113.4750   77.3800 C.3   197  LEU197      0.0019
    116  CD1       29.6930  114.1550   76.7210 C.3   197  LEU197      0.0001
    117  CD2       27.6240  112.7950   76.3460 C.3   197  LEU197      0.0001
    118  N         26.4410  107.9690   80.4980 N.3   200  LEU200     -0.1231
    119  CA        26.1620  107.3780   79.1940 C.3   200  LEU200      0.1693
    120  C         27.2520  106.3750   78.8720 C.2   200  LEU200      0.2592
    121  O         26.9940  105.2000   78.8350 O.2   200  LEU200     -0.2718
    122  CB        26.0990  108.4240   78.0780 C.3   200  LEU200      0.0284
    123  CG        25.8170  107.7330   76.7390 C.3   200  LEU200      0.0019
    124  CD1       24.4180  107.1140   76.7790 C.3   200  LEU200      0.0001
    125  CD2       25.9370  108.7110   75.5990 C.3   200  LEU200      0.0001
    126  N         28.4730  106.8480   78.6660 N.am  201  HIS201     -0.1976
    127  CA        29.5980  105.9820   78.3420 C.3   201  HIS201      0.1656
    128  C         29.7170  104.7050   79.1480 C.2   201  HIS201      0.2291
    129  O         30.3600  103.7620   78.6980 O.2   201  HIS201     -0.2864
    130  CB        30.9030  106.7580   78.4620 C.3   201  HIS201      0.0771
    131  CG        31.0760  107.7970   77.4080 C.ar  201  HIS201      0.0820
    132  ND1       30.1040  108.7260   77.1340 N.ar  201  HIS201     -0.2267
    133  CD2       32.1210  108.0830   76.6010 C.ar  201  HIS201      0.1154
    134  CE1       30.5470  109.5500   76.2080 C.ar  201  HIS201      0.1986
    135  NE2       31.7630  109.1790   75.8620 N.ar  201  HIS201     -0.2212
    136  N         26.9740  101.5350   76.5850 N.3   204  GLY204     -0.1210
    137  CA        27.1300  102.1230   75.2650 C.3   204  GLY204      0.1956
    138  C         25.9920  103.0620   74.8930 C.2   204  GLY204      0.2612
    139  O         25.0290  103.1950   75.6460 O.2   204  GLY204     -0.2717
    140  N         26.0990  103.7450   73.7550 N.am  205  SER205     -0.1952
    141  CA        25.0140  104.6170   73.3150 C.3   205  SER205      0.1924
    142  C         23.8860  103.6400   73.0450 C.2   205  SER205      0.2314
    143  O         24.1160  102.4340   73.0150 O.2   205  SER205     -0.2863
    144  CB        25.3780  105.3410   72.0300 C.3   205  SER205      0.2116
    145  OG        26.5420  106.0800   72.2260 O.3   205  SER205     -0.2180
    146  N         33.9490  105.2760   67.0510 N.3   220  PHE220     -0.1241
    147  CA        33.3450  106.5980   66.9680 C.3   220  PHE220      0.1605
    148  C         33.9230  107.4750   65.8890 C.2   220  PHE220      0.2264
    149  O         33.2040  107.9850   65.0170 O.2   220  PHE220     -0.2867
    150  CB        33.5240  107.3870   68.2600 C.3   220  PHE220      0.0534
    151  CG        32.8900  108.7710   68.2160 C.ar  220  PHE220     -0.0203
    152  CD1       33.5520  109.8560   67.6170 C.ar  220  PHE220     -0.0042
    153  CD2       31.6120  108.9770   68.7320 C.ar  220  PHE220     -0.0042
    154  CE1       32.9520  111.1120   67.5370 C.ar  220  PHE220     -0.0003
    155  CE2       31.0150  110.2240   68.6550 C.ar  220  PHE220     -0.0003
    156  CZ        31.6860  111.2950   68.0560 C.ar  220  PHE220     -0.0000
    157  N         31.2160  108.4690   63.1830 N.3   224  TYR224     -0.1241
    158  CA        30.4680  109.5580   63.7650 C.3   224  TYR224      0.1605
    159  C         31.1160  110.9330   63.8610 C.2   224  TYR224      0.2264
    160  O         30.4080  111.9470   63.8350 O.2   224  TYR224     -0.2867
    161  CB        29.9000  109.1210   65.1040 C.3   224  TYR224      0.0534
    162  CG        28.9610  107.9640   64.9320 C.ar  224  TYR224     -0.0201
    163  CD1       29.4280  106.6500   64.9360 C.ar  224  TYR224     -0.0009
    164  CD2       27.6140  108.1800   64.6830 C.ar  224  TYR224     -0.0009
    165  CE1       28.5670  105.5730   64.6980 C.ar  224  TYR224      0.0417
    166  CE2       26.7460  107.1200   64.4400 C.ar  224  TYR224      0.0417
    167  CZ        27.2280  105.8220   64.4480 C.ar  224  TYR224      0.1957
    168  OH        26.3660  104.7840   64.1980 O.3   224  TYR224     -0.2866
    169  N         28.6840  113.6120   62.6000 N.3   228  ASP228     -0.1239
    170  CA        28.3320  114.7760   63.3860 C.3   228  ASP228      0.1674
    171  C         28.7140  116.0960   62.7240 C.2   228  ASP228      0.2266
    172  O         27.8890  117.0020   62.6630 O.2   228  ASP228     -0.2867
    173  CB        28.9150  114.6450   64.7900 C.3   228  ASP228      0.1410
    174  CG        28.3290  113.4550   65.5360 C.2   228  ASP228      0.3668
    175  OD1       27.6840  112.6180   64.8730 O.co2 228  ASP228     -0.2456
    176  OD2       28.5070  113.3410   66.7690 O.co2 228  ASP228     -0.2456
@<TRIPOS>BOND
     1    46    45    2
     2   169   170    1
     3   172   171    2
     4   171   170    1
     5   157   158    1
     6   170   173    1
     7    45    44    1
     8    43    44    1
     9   158   159    1
    10   158   161    1
    11   160   159    2
    12   168   167    1
    13    44    47    1
    14   166   167   ar
    15   166   164   ar
    16   167   165   ar
    17   164   162   ar
    18   165   163   ar
    19   173   174    1
    20   175   174   ar
    21   162   163   ar
    22   162   161    1
    23   149   148    2
    24    47    49    1
    25    47    48    1
    26   174   176   ar
    27   148   147    1
    28    51    52    1
    29    48    50    1
    30   147   146    1
    31   147   150    1
    32    41    40    2
    33    55    52    1
    34    55    56    1
    35    53    52    1
    36    53    54    2
    37    61    63   ar
    38    61    58   ar
    39   154   152   ar
    40   154   156   ar
    41   152   151   ar
    42    63    64   ar
    43    74    73    1
    44    85    84    1
    45    40    39    1
    46   156   155   ar
    47    18    17    2
    48   151   150    1
    49   151   153   ar
    50    42    39    1
    51    58    56   ar
    52    58    60   ar
    53    86    84    1
    54    56    57   ar
    55    73    70    1
    56   155   153   ar
    57    84    81    1
    58    64    62   ar
    59    39    38    1
    60    38    33   am
    61    71    72    2
    62    71    70    1
    63    17    16    1
    64    60    62   ar
    65    60    59   ar
    66    57    59   ar
    67    26    25    2
    68    70    69    1
    69    69    67   am
    70    19    16    1
    71    19    20    1
    72    81    82    1
    73    81    80    1
    74    65    66    1
    75    22    20    1
    76    33    32    1
    77    33    34    2
    78    16    15    1
    79    82    83    2
    80    32    31    1
    81    32    35    1
    82    25    31   am
    83    25    24    1
    84    20    21    1
    85    23    24    1
    86    80    77   am
    87    67    66    1
    88    67    68    2
    89    31    37    1
    90    35    36    1
    91    24    27    1
    92    15    11   am
    93     7     5    1
    94   144   145    1
    95   144   141    1
    96    27    28    1
    97    91    92    1
    98    91    88    1
    99    36    37    1
   100    77    78    2
   101    77    76    1
   102    12    11    2
   103    89    90    2
   104    89    88    1
   105    92    93    1
   106    75    76    1
   107     4     3    2
   108    11    10    1
   109    28    30    1
   110    28    29    1
   111    79    76    1
   112   143   142    2
   113   142   141    1
   114    88    87    1
   115     3     2    1
   116     5     2    1
   117     5     6    1
   118   141   140    1
   119     8     6    1
   120   140   138   am
   121    93    94    1
   122     2     1    1
   123    10     9    1
   124    10    13    1
   125   138   137    1
   126   138   139    2
   127    13    14    1
   128   137   136    1
   129   125   123    1
   130   135   134   ar
   131   135   133   ar
   132   134   132   ar
   133   117   115    1
   134   133   131   ar
   135   116   115    1
   136   123   124    1
   137   123   122    1
   138   132   131   ar
   139   115   114    1
   140   131   130    1
   141   122   119    1
   142   101    99    1
   143   114   111    1
   144   127   130    1
   145   127   126    1
   146   127   128    1
   147   126   120   am
   148   129   128    2
   149   121   120    2
   150   120   119    1
   151   100    99    1
   152   111   112    1
   153   111   110    1
   154   119   118    1
   155   113   112    2
   156    99    96    1
   157    98    97    2
   158   109   107    1
   159    96    97    1
   160    96    95    1
   161    97   102   am
   162   102   103    1
   163   103   104    1
   164   103   106    1
   165   107   106    1
   166   105   104    2
   167   106   108    1
