@<TRIPOS>MOLECULE
tmp/2bccC05.pdb
 234 225 0 0 0
SMALL
GASTEIGER

@<TRIPOS>ATOM
      1  N         15.9370  121.4560   82.5620 N.3   121  LEU121     -0.1245
      2  CA        15.5850  122.4120   83.6040 C.3   121  LEU121      0.1561
      3  C         16.5330  123.6070   83.7330 C.2   121  LEU121      0.2260
      4  O         16.1080  124.7700   83.7850 O.2   121  LEU121     -0.2867
      5  CB        15.4940  121.6950   84.9380 C.3   121  LEU121      0.0270
      6  CG        14.1930  120.9200   85.0010 C.3   121  LEU121      0.0019
      7  CD1       14.1950  119.9910   86.1870 C.3   121  LEU121      0.0001
      8  CD2       13.0530  121.9200   85.0700 C.3   121  LEU121      0.0001
      9  N         16.4450  125.7140   80.6140 N.3   124  MET124     -0.1230
     10  CA        15.2490  126.5430   80.7570 C.3   124  MET124      0.1702
     11  C         15.5630  127.6980   81.6990 C.2   124  MET124      0.2592
     12  O         15.4940  128.8430   81.3010 O.2   124  MET124     -0.2718
     13  CB        14.0550  125.7460   81.2980 C.3   124  MET124      0.0401
     14  CG        13.4370  124.7980   80.2900 C.3   124  MET124      0.0596
     15  SD        11.8770  124.0920   80.8590 S.3   124  MET124     -0.1393
     16  CE        11.4970  122.9910   79.5450 C.3   124  MET124      0.0692
     17  N         15.9320  127.4040   82.9390 N.am  125  ALA125     -0.1980
     18  CA        16.2680  128.4750   83.8780 C.3   125  ALA125      0.1597
     19  C         17.2930  129.4500   83.3320 C.2   125  ALA125      0.2287
     20  O         17.0800  130.6600   83.3880 O.2   125  ALA125     -0.2864
     21  CB        16.7820  127.9090   85.1780 C.3   125  ALA125      0.0319
     22  N         15.6890  131.8270   80.9090 N.3   128  PHE128     -0.1227
     23  CA        14.6950  132.7620   81.4100 C.3   128  PHE128      0.1736
     24  C         15.4940  133.9730   81.7890 C.2   128  PHE128      0.2595
     25  O         15.2980  135.0610   81.2460 O.2   128  PHE128     -0.2718
     26  CB        13.9900  132.1830   82.6250 C.3   128  PHE128      0.0547
     27  CG        13.4490  133.2110   83.5540 C.ar  128  PHE128     -0.0202
     28  CD1       12.7000  134.2770   83.0740 C.ar  128  PHE128     -0.0042
     29  CD2       13.6820  133.1060   84.9240 C.ar  128  PHE128     -0.0042
     30  CE1       12.1900  135.2370   83.9480 C.ar  128  PHE128     -0.0003
     31  CE2       13.1790  134.0560   85.8070 C.ar  128  PHE128     -0.0003
     32  CZ        12.4270  135.1270   85.3160 C.ar  128  PHE128     -0.0000
     33  N         16.4110  133.7800   82.7280 N.am  129  VAL129     -0.1980
     34  CA        17.2880  134.8590   83.1270 C.3   129  VAL129      0.1595
     35  C         17.9810  135.2330   81.8240 C.2   129  VAL129      0.2287
     36  O         17.8800  134.5130   80.8370 O.2   129  VAL129     -0.2864
     37  CB        18.3140  134.3590   84.1440 C.3   129  VAL129      0.0276
     38  CG1       19.3600  135.4140   84.3900 C.3   129  VAL129      0.0022
     39  CG2       17.6110  134.0190   85.4310 C.3   129  VAL129      0.0022
     40  N         17.2190  136.5560   79.2430 N.3   131  TYR131     -0.1241
     41  CA        16.2280  137.2410   78.4290 C.3   131  TYR131      0.1605
     42  C         15.7860  138.4470   79.2770 C.2   131  TYR131      0.2264
     43  O         15.4100  139.4880   78.7530 O.2   131  TYR131     -0.2867
     44  CB        15.0330  136.3470   78.1170 C.3   131  TYR131      0.0534
     45  CG        13.9770  136.9860   77.2170 C.ar  131  TYR131     -0.0201
     46  CD1       14.2970  137.4780   75.9490 C.ar  131  TYR131     -0.0009
     47  CD2       12.6370  137.0150   77.6000 C.ar  131  TYR131     -0.0009
     48  CE1       13.2960  137.9700   75.0800 C.ar  131  TYR131      0.0417
     49  CE2       11.6370  137.5010   76.7430 C.ar  131  TYR131      0.0417
     50  CZ        11.9680  137.9700   75.4910 C.ar  131  TYR131      0.1957
     51  OH        10.9560  138.3870   74.6570 O.3   131  TYR131     -0.2866
     52  N          9.1190  142.8940   77.7090 N.3   138  MET138     -0.1245
     53  CA         9.0830  141.4680   77.9560 C.3   138  MET138      0.1570
     54  C         10.0120  141.0560   79.0950 C.2   138  MET138      0.2261
     55  O          9.5620  140.4660   80.0800 O.2   138  MET138     -0.2867
     56  CB         9.4050  140.7020   76.6710 C.3   138  MET138      0.0387
     57  CG         8.3120  140.8280   75.6190 C.3   138  MET138      0.0595
     58  SD         6.6950  140.6300   76.3920 S.3   138  MET138     -0.1393
     59  CE         5.6000  140.2870   74.9650 C.3   138  MET138      0.0692
     60  N          8.3960  141.9710   82.5750 N.3   141  TRP141     -0.1227
     61  CA         7.1980  141.2540   82.9510 C.3   141  TRP141      0.1737
     62  C          7.4330  139.7470   82.9950 C.2   141  TRP141      0.2596
     63  O          6.7370  138.9990   83.7030 O.2   141  TRP141     -0.2718
     64  CB         6.0350  141.6890   82.0530 C.3   141  TRP141      0.0564
     65  CG         5.7760  143.1730   82.2450 C.ar  141  TRP141      0.0003
     66  CD1        6.1280  144.1920   81.3990 C.ar  141  TRP141      0.0946
     67  CD2        5.2620  143.8040   83.4270 C.ar  141  TRP141      0.0152
     68  NE1        5.8690  145.4100   81.9840 N.ar  141  TRP141     -0.2442
     69  CE2        5.3400  145.1980   83.2300 C.ar  141  TRP141      0.0810
     70  CE3        4.7500  143.3250   84.6390 C.ar  141  TRP141      0.0012
     71  CZ2        4.9180  146.1190   84.2010 C.ar  141  TRP141      0.0191
     72  CZ3        4.3290  144.2450   85.6100 C.ar  141  TRP141      0.0001
     73  CH2        4.4170  145.6190   85.3820 C.ar  141  TRP141      0.0015
     74  N          8.4440  139.2920   82.2740 N.am  142  GLY142     -0.1957
     75  CA         8.7430  137.8830   82.3500 C.3   142  GLY142      0.1869
     76  C          9.2490  137.6740   83.7680 C.2   142  GLY142      0.2309
     77  O          8.7290  136.8420   84.5240 O.2   142  GLY142     -0.2863
     78  N          6.6350  137.5250   86.5270 N.3   145  VAL145     -0.1231
     79  CA         5.7740  136.3460   86.6660 C.3   145  VAL145      0.1692
     80  C          6.5100  135.0900   87.0380 C.2   145  VAL145      0.2592
     81  O          6.1670  134.4240   88.0050 O.2   145  VAL145     -0.2718
     82  CB         4.9810  136.0370   85.3990 C.3   145  VAL145      0.0266
     83  CG1        4.0680  137.1700   85.0820 C.3   145  VAL145      0.0020
     84  CG2        5.9100  135.8090   84.2570 C.3   145  VAL145      0.0020
     85  N          7.5250  134.7550   86.2630 N.am  146  ILE146     -0.1966
     86  CA         8.2880  133.5570   86.5280 C.3   146  ILE146      0.1727
     87  C          8.7830  133.5550   87.9670 C.2   146  ILE146      0.2616
     88  O          8.7000  132.5380   88.6410 O.2   146  ILE146     -0.2715
     89  CB         9.4300  133.4330   85.5060 C.3   146  ILE146      0.0290
     90  CG1        8.8180  133.1370   84.1310 C.3   146  ILE146      0.0022
     91  CG2       10.4000  132.3460   85.9130 C.3   146  ILE146      0.0023
     92  CD1        9.7820  133.1920   82.9920 C.3   146  ILE146      0.0001
     93  N          9.2780  134.6830   88.4590 N.am  147  THR147     -0.1951
     94  CA         9.7230  134.7180   89.8470 C.3   147  THR147      0.1897
     95  C          8.4910  134.5250   90.7360 C.2   147  THR147      0.2313
     96  O          8.4210  133.5700   91.5280 O.2   147  THR147     -0.2863
     97  CB        10.3950  136.0590   90.2170 C.3   147  THR147      0.1794
     98  OG1       11.5800  136.2440   89.4400 O.3   147  THR147     -0.2208
     99  CG2       10.8000  136.0550   91.6710 C.3   147  THR147      0.0378
    100  N          6.1200  133.2450   90.3380 N.3   149  LEU149     -0.1231
    101  CA         5.6590  131.8990   90.1520 C.3   149  LEU149      0.1693
    102  C          5.9280  131.0790   91.4160 C.2   149  LEU149      0.2592
    103  O          5.1840  130.1450   91.7190 O.2   149  LEU149     -0.2718
    104  CB         6.3770  131.3400   88.9270 C.3   149  LEU149      0.0284
    105  CG         5.9620  130.0860   88.1890 C.3   149  LEU149      0.0019
    106  CD1        4.4580  130.0030   88.0040 C.3   149  LEU149      0.0001
    107  CD2        6.6640  130.1410   86.8530 C.3   149  LEU149      0.0001
    108  N          6.9690  131.4340   92.1660 N.am  150  PHE150     -0.1976
    109  CA         7.2830  130.6980   93.3900 C.3   150  PHE150      0.1639
    110  C          6.4340  131.1000   94.5640 C.2   150  PHE150      0.2290
    111  O          6.4710  130.4670   95.6150 O.2   150  PHE150     -0.2864
    112  CB         8.7500  130.8600   93.7410 C.3   150  PHE150      0.0560
    113  CG         9.6450  130.0250   92.9010 C.ar  150  PHE150     -0.0200
    114  CD1        9.1900  128.8130   92.3870 C.ar  150  PHE150     -0.0042
    115  CD2       10.9350  130.4410   92.6090 C.ar  150  PHE150     -0.0042
    116  CE1       10.0000  128.0280   91.5900 C.ar  150  PHE150     -0.0003
    117  CE2       11.7630  129.6650   91.8090 C.ar  150  PHE150     -0.0003
    118  CZ        11.2940  128.4550   91.2950 C.ar  150  PHE150     -0.0000
    119  N         10.7480  133.5730   99.6580 N.3   160  LEU160     -0.1245
    120  CA        11.6580  133.1330   98.6180 C.3   160  LEU160      0.1561
    121  C         11.7040  134.1500   97.4780 C.2   160  LEU160      0.2260
    122  O         12.7550  134.3920   96.8980 O.2   160  LEU160     -0.2867
    123  CB        11.2260  131.7430   98.1180 C.3   160  LEU160      0.0270
    124  CG        12.2670  130.9230   97.3420 C.3   160  LEU160      0.0019
    125  CD1       11.8710  129.4570   97.3670 C.3   160  LEU160      0.0001
    126  CD2       12.4310  131.4660   95.9150 C.3   160  LEU160      0.0001
    127  N         14.4020  136.2270   95.9750 N.3   164  ALA164     -0.1245
    128  CA        14.6730  135.7010   94.6430 C.3   164  ALA164      0.1562
    129  C         15.2550  136.8540   93.8550 C.2   164  ALA164      0.2260
    130  O         16.4150  136.8380   93.4490 O.2   164  ALA164     -0.2867
    131  CB        13.3730  135.2220   93.9890 C.3   164  ALA164      0.0290
    132  N         20.5840  138.7050   88.3100 N.3   178  PHE178     -0.1241
    133  CA        20.2090  137.8700   87.1930 C.3   178  PHE178      0.1605
    134  C         21.3720  137.8050   86.2340 C.2   178  PHE178      0.2264
    135  O         21.7240  136.7310   85.7670 O.2   178  PHE178     -0.2867
    136  CB        18.9490  138.4040   86.5310 C.3   178  PHE178      0.0534
    137  CG        17.6930  137.9160   87.1790 C.ar  178  PHE178     -0.0203
    138  CD1       17.6580  137.6730   88.5440 C.ar  178  PHE178     -0.0042
    139  CD2       16.5480  137.6950   86.4310 C.ar  178  PHE178     -0.0042
    140  CE1       16.5060  137.2120   89.1550 C.ar  178  PHE178     -0.0003
    141  CE2       15.3880  137.2340   87.0330 C.ar  178  PHE178     -0.0003
    142  CZ        15.3670  136.9900   88.4010 C.ar  178  PHE178     -0.0000
    143  N         23.5580  135.0790   87.6760 N.3   181  LEU181     -0.1245
    144  CA        23.1350  133.7030   87.4670 C.3   181  LEU181      0.1561
    145  C         23.3920  133.3270   86.0390 C.2   181  LEU181      0.2260
    146  O         24.0590  132.3310   85.7620 O.2   181  LEU181     -0.2867
    147  CB        21.6560  133.5050   87.7660 C.3   181  LEU181      0.0270
    148  CG        21.4480  132.8570   89.1300 C.3   181  LEU181      0.0019
    149  CD1       21.8220  133.8320   90.2670 C.3   181  LEU181      0.0001
    150  CD2       20.0070  132.4510   89.2470 C.3   181  LEU181      0.0001
    151  N          0.9120  139.6420   76.1800 N.3   268  ILE268     -0.1231
    152  CA         2.2360  139.2960   76.6840 C.3   268  ILE268      0.1692
    153  C          2.3430  137.8570   76.2990 C.2   268  ILE268      0.2592
    154  O          1.5810  137.0190   76.7690 O.2   268  ILE268     -0.2718
    155  CB         2.3520  139.2990   78.1880 C.3   268  ILE268      0.0266
    156  CG1        1.8270  140.5840   78.7440 C.3   268  ILE268      0.0019
    157  CG2        3.7880  139.1970   78.5640 C.3   268  ILE268      0.0020
    158  CD1        2.1540  140.7330   80.2150 C.3   268  ILE268      0.0001
    159  N          3.3120  137.5300   75.4580 N.am  269  LYS269     -0.1966
    160  CA         3.4540  136.1580   75.0680 C.3   269  LYS269      0.1713
    161  C          4.8330  135.6670   75.4010 C.2   269  LYS269      0.2458
    162  O          5.8360  136.2880   75.0580 O.2   269  LYS269     -0.2730
    163  CB         3.2510  136.0090   73.5720 C.3   269  LYS269      0.0311
    164  CG         4.4040  136.6360   72.7620 C.3   269  LYS269      0.0038
    165  CD         4.2870  136.3860   71.2640 C.3   269  LYS269      0.0206
    166  CE         5.6000  135.8830   70.6890 C.3   269  LYS269      0.1093
    167  NZ         5.5480  135.8470   69.2040 N.3   269  LYS269     -0.1314
    168  N          4.9060  134.5710   76.1510 N.am  270  PRO270     -0.2716
    169  CA         6.2210  134.0430   76.5120 C.3   270  PRO270      0.1536
    170  C          6.8990  133.5610   75.2200 C.2   270  PRO270      0.2598
    171  O          6.2420  133.2410   74.2350 O.2   270  PRO270     -0.2715
    172  CB         5.9090  132.8930   77.4610 C.3   270  PRO270      0.0310
    173  CG         4.4600  132.6380   77.3320 C.3   270  PRO270      0.0237
    174  CD         3.8170  133.8690   76.8400 C.3   270  PRO270      0.0939
    175  N          8.2270  133.5570   75.2480 N.am  271  GLU271     -0.1978
    176  CA         9.0630  133.1350   74.1360 C.3   271  GLU271      0.1602
    177  C          8.7030  131.6960   73.7900 C.2   271  GLU271      0.2287
    178  O          8.6780  130.8150   74.6430 O.2   271  GLU271     -0.2864
    179  CB        10.5420  133.2460   74.5410 C.3   271  GLU271      0.0415
    180  CG        10.7980  134.2280   75.6900 C.3   271  GLU271      0.1163
    181  CD        10.2890  133.7070   77.0550 C.2   271  GLU271      0.3649
    182  OE1        9.1020  133.3520   77.1480 O.co2 271  GLU271     -0.2457
    183  OE2       11.0820  133.6650   78.0130 O.co2 271  GLU271     -0.2457
    184  N          8.7680  128.1590   75.4280 N.3   274  PHE274     -0.1241
    185  CA         8.1580  128.0760   76.7630 C.3   274  PHE274      0.1605
    186  C          6.6440  127.9900   76.7120 C.2   274  PHE274      0.2264
    187  O          6.0000  127.7190   77.7160 O.2   274  PHE274     -0.2867
    188  CB         8.5040  129.3020   77.5980 C.3   274  PHE274      0.0534
    189  CG         9.8510  129.2560   78.2230 C.ar  274  PHE274     -0.0203
    190  CD1       10.5160  128.0640   78.3860 C.ar  274  PHE274     -0.0042
    191  CD2       10.4550  130.4170   78.6580 C.ar  274  PHE274     -0.0042
    192  CE1       11.7640  128.0290   78.9680 C.ar  274  PHE274     -0.0003
    193  CE2       11.6960  130.3920   79.2410 C.ar  274  PHE274     -0.0003
    194  CZ        12.3530  129.1940   79.3950 C.ar  274  PHE274     -0.0000
    195  N          4.4050  124.7750   78.1300 N.3   277  ALA277     -0.1231
    196  CA         4.2920  124.8310   79.5740 C.3   277  ALA277      0.1694
    197  C          3.2780  125.9050   79.9010 C.2   277  ALA277      0.2592
    198  O          2.2720  125.6440   80.5610 O.2   277  ALA277     -0.2718
    199  CB         5.6230  125.1780   80.1800 C.3   277  ALA277      0.0304
    200  N          3.5580  127.1130   79.4160 N.am  278  TYR278     -0.1976
    201  CA         2.7090  128.2800   79.6220 C.3   278  TYR278      0.1639
    202  C          1.2580  127.8910   79.4700 C.2   278  TYR278      0.2290
    203  O          0.4600  128.0760   80.3960 O.2   278  TYR278     -0.2864
    204  CB         3.0660  129.3630   78.5960 C.3   278  TYR278      0.0560
    205  CG         2.1790  130.6060   78.5990 C.ar  278  TYR278     -0.0198
    206  CD1        2.0450  131.4030   79.7340 C.ar  278  TYR278     -0.0009
    207  CD2        1.4950  130.9930   77.4470 C.ar  278  TYR278     -0.0009
    208  CE1        1.2530  132.5540   79.7160 C.ar  278  TYR278      0.0417
    209  CE2        0.7030  132.1380   77.4230 C.ar  278  TYR278      0.0417
    210  CZ         0.5830  132.9120   78.5550 C.ar  278  TYR278      0.1957
    211  OH        -0.2090  134.0400   78.5070 O.3   278  TYR278     -0.2866
    212  N         -0.0560  126.0510   82.3050 N.3   281  LEU281     -0.1245
    213  CA        -0.2020  126.9030   83.5050 C.3   281  LEU281      0.1561
    214  C         -1.5320  127.6400   83.5540 C.2   281  LEU281      0.2260
    215  O         -2.2080  127.6640   84.5900 O.2   281  LEU281     -0.2867
    216  CB         0.9270  127.9440   83.5980 C.3   281  LEU281      0.0270
    217  CG         1.0950  128.7860   84.8870 C.3   281  LEU281      0.0019
    218  CD1       -0.1830  129.5230   85.2300 C.3   281  LEU281      0.0001
    219  CD2        1.4770  127.8880   86.0470 C.3   281  LEU281      0.0001
    220  N          2.0400  123.3060   85.9490 N.3   294  LEU294     -0.1245
    221  CA         3.2480  123.7460   85.2860 C.3   294  LEU294      0.1561
    222  C          4.3370  122.8050   85.7400 C.2   294  LEU294      0.2260
    223  O          4.9500  122.1210   84.9430 O.2   294  LEU294     -0.2867
    224  CB         3.6170  125.1520   85.7120 C.3   294  LEU294      0.0270
    225  CG         4.8510  125.6090   84.9380 C.3   294  LEU294      0.0019
    226  CD1        4.5900  125.4120   83.4370 C.3   294  LEU294      0.0001
    227  CD2        5.1740  127.0730   85.2590 C.3   294  LEU294      0.0001
    228  N          6.7810  119.6560   83.0760 N.3   298  VAL298     -0.1245
    229  CA         8.1850  119.3670   82.7960 C.3   298  VAL298      0.1561
    230  C          8.7020  118.2940   83.7490 C.2   298  VAL298      0.2260
    231  O          9.3010  117.2890   83.3410 O.2   298  VAL298     -0.2867
    232  CB         9.0450  120.6320   82.9510 C.3   298  VAL298      0.0252
    233  CG1       10.4960  120.3180   82.6840 C.3   298  VAL298      0.0019
    234  CG2        8.5660  121.6870   81.9780 C.3   298  VAL298      0.0019
@<TRIPOS>BOND
     1   167   166    1
     2   166   165    1
     3   165   164    1
     4   164   163    1
     5   163   160    1
     6   177   176    1
     7   177   178    2
     8   176   179    1
     9   176   175    1
    10   171   170    2
    11   179   180    1
    12    51    50    1
    13    59    58    1
    14   162   161    2
    15   160   161    1
    16   160   159    1
    17    48    50   ar
    18    48    46   ar
    19   170   175   am
    20   170   169    1
    21   161   168   am
    22   184   185    1
    23   159   153   am
    24    50    49   ar
    25    57    58    1
    26    57    56    1
    27   180   181    1
    28    46    45   ar
    29   168   169    1
    30   168   174    1
    31   151   152    1
    32   153   152    1
    33   153   154    2
    34   169   172    1
    35    56    53    1
    36   152   155    1
    37   186   185    1
    38   186   187    2
    39    49    47   ar
    40   185   188    1
    41   174   173    1
    42   181   182   ar
    43   181   183   ar
    44    45    47   ar
    45    45    44    1
    46   173   172    1
    47   209   207   ar
    48   209   210   ar
    49   207   205   ar
    50   188   189    1
    51    52    53    1
    52    53    54    1
    53    44    41    1
    54   195   196    1
    55   155   157    1
    56   155   156    1
    57   189   190   ar
    58   189   191   ar
    59   190   192   ar
    60    41    40    1
    61    41    42    1
    62   211   210    1
    63   210   208   ar
    64   204   205    1
    65   204   201    1
    66   205   206   ar
    67   191   193   ar
    68   156   158    1
    69    43    42    2
    70   192   194   ar
    71    54    55    2
    72   193   194   ar
    73   200   201    1
    74   200   197   am
    75   202   201    1
    76   202   203    2
    77    16    15    1
    78   196   197    1
    79   196   199    1
    80   208   206   ar
    81   197   198    2
    82    14    15    1
    83    14    13    1
    84     9    10    1
    85    10    13    1
    86    10    11    1
    87    36    35    2
    88    22    23    1
    89    25    24    2
    90    12    11    2
    91    66    68   ar
    92    66    65   ar
    93    23    24    1
    94    23    26    1
    95    11    17   am
    96    24    33   am
    97    35    34    1
    98   234   232    1
    99    68    69   ar
   100    64    65    1
   101    64    61    1
   102    65    67   ar
   103    74    75    1
   104    74    62   am
   105   212   213    1
   106    75    76    1
   107     1     2    1
   108    60    61    1
   109    26    27    1
   110   233   232    1
   111    33    34    1
   112   229   232    1
   113   229   228    1
   114   229   230    1
   115    17    18    1
   116    61    62    1
   117    92    90    1
   118    62    63    2
   119    28    27   ar
   120    28    30   ar
   121    34    37    1
   122    69    67   ar
   123    69    71   ar
   124    19    20    2
   125    19    18    1
   126   231   230    2
   127    67    70   ar
   128   226   225    1
   129   213   214    1
   130   213   216    1
   131   214   215    2
   132    27    29   ar
   133   216   217    1
   134     2     3    1
   135     2     5    1
   136     3     4    2
   137    76    77    2
   138    18    21    1
   139    30    32   ar
   140    90    89    1
   141    37    38    1
   142    37    39    1
   143    71    73   ar
   144    84    82    1
   145    70    72   ar
   146   217   218    1
   147   217   219    1
   148    29    31   ar
   149   225   227    1
   150   225   224    1
   151     5     6    1
   152   223   222    2
   153     6     8    1
   154     6     7    1
   155    83    82    1
   156   221   224    1
   157   221   222    1
   158   221   220    1
   159    32    31   ar
   160    73    72   ar
   161    82    79    1
   162    89    91    1
   163    89    86    1
   164   146   145    2
   165   135   134    2
   166   145   144    1
   167   134   133    1
   168    85    86    1
   169    85    80   am
   170   139   141   ar
   171   139   137   ar
   172    78    79    1
   173    86    87    1
   174   136   137    1
   175   136   133    1
   176    79    80    1
   177   107   105    1
   178   141   142   ar
   179    80    81    2
   180   137   138   ar
   181   133   132    1
   182   144   143    1
   183   144   147    1
   184   147   148    1
   185    87    93   am
   186    87    88    2
   187   106   105    1
   188   105   104    1
   189   142   140   ar
   190    93    94    1
   191   138   140   ar
   192   104   101    1
   193   148   150    1
   194   148   149    1
   195    98    97    1
   196    94    97    1
   197    94    95    1
   198   101   100    1
   199   101   102    1
   200    97    99    1
   201    95    96    2
   202   118   116   ar
   203   118   117   ar
   204   102   103    2
   205   102   108   am
   206   116   114   ar
   207   117   115   ar
   208   108   109    1
   209   114   113   ar
   210   115   113   ar
   211   113   112    1
   212   109   112    1
   213   109   110    1
   214   130   129    2
   215   129   128    1
   216   131   128    1
   217   110   111    2
   218   128   127    1
   219   126   124    1
   220   122   121    2
   221   124   125    1
   222   124   123    1
   223   121   120    1
   224   123   120    1
   225   120   119    1
