@<TRIPOS>MOLECULE
tmp/2bcgA01.pdb
 134 123 0 0 0
SMALL
GASTEIGER

@<TRIPOS>ATOM
      1  N        -15.1550  -73.3250   21.6600 N.3   127  GLU127     -0.1245
      2  CA       -15.8530  -74.3920   22.3850 C.3   127  GLU127      0.1567
      3  C        -15.9130  -75.7260   21.6280 C.2   127  GLU127      0.2260
      4  O        -15.7250  -76.7860   22.2480 O.2   127  GLU127     -0.2867
      5  CB       -17.2770  -73.9530   22.7670 C.3   127  GLU127      0.0388
      6  CG       -18.0000  -74.9480   23.6900 C.3   127  GLU127      0.1160
      7  CD       -19.2960  -74.3900   24.2300 C.2   127  GLU127      0.3649
      8  OE1      -19.7810  -73.4060   23.6360 O.co2 127  GLU127     -0.2457
      9  OE2      -19.7980  -74.9170   25.2420 O.co2 127  GLU127     -0.2457
     10  N        -12.6580  -77.3400   22.0120 N.3   130  ALA130     -0.1231
     11  CA       -12.5610  -77.8200   23.3890 C.3   130  ALA130      0.1694
     12  C        -13.3370  -79.1280   23.6080 C.2   130  ALA130      0.2591
     13  O        -12.8490  -80.0620   24.2710 O.2   130  ALA130     -0.2718
     14  CB       -13.0120  -76.7490   24.3650 C.3   130  ALA130      0.0304
     15  N        -14.5200  -79.2120   23.0150 N.am  131  ILE131     -0.1980
     16  CA       -15.3060  -80.4540   23.0550 C.3   131  ILE131      0.1595
     17  C        -14.5610  -81.5930   22.3530 C.2   131  ILE131      0.2287
     18  O        -14.4850  -82.7190   22.8920 O.2   131  ILE131     -0.2864
     19  CB       -16.6960  -80.2100   22.4480 C.3   131  ILE131      0.0276
     20  CG1      -17.5150  -79.3820   23.4470 C.3   131  ILE131      0.0022
     21  CG2      -17.4010  -81.5320   22.0910 C.3   131  ILE131      0.0022
     22  CD1      -18.6490  -78.5930   22.8000 C.3   131  ILE131      0.0001
     23  N         -7.8640  -84.2520   27.0550 N.3   136  MET136     -0.1245
     24  CA        -8.4860  -84.5370   28.3630 C.3   136  MET136      0.1570
     25  C         -9.6640  -85.4780   28.1630 C.2   136  MET136      0.2261
     26  O        -10.3290  -85.4100   27.1280 O.2   136  MET136     -0.2867
     27  CB        -9.0380  -83.2530   28.9930 C.3   136  MET136      0.0387
     28  CG        -8.0110  -82.2060   29.3540 C.3   136  MET136      0.0595
     29  SD        -8.7980  -80.9250   30.3300 S.3   136  MET136     -0.1393
     30  CE        -7.4340  -79.7470   30.3760 C.3   136  MET136      0.0692
     31  N        -13.5580  -86.8830   29.5280 N.3   138  ILE138     -0.1245
     32  CA       -14.8000  -86.1610   29.8290 C.3   138  ILE138      0.1561
     33  C        -14.8700  -85.6300   31.2660 C.2   138  ILE138      0.2260
     34  O        -15.1970  -84.4670   31.5030 O.2   138  ILE138     -0.2867
     35  CB       -16.0600  -87.0170   29.5310 C.3   138  ILE138      0.0252
     36  CG1      -16.1030  -87.4070   28.0470 C.3   138  ILE138      0.0019
     37  CG2      -17.3430  -86.2460   29.9040 C.3   138  ILE138      0.0019
     38  CD1      -17.3570  -88.2110   27.5700 C.3   138  ILE138      0.0001
     39  N        -12.4940  -82.8570   31.8600 N.3   141  LYS141     -0.1231
     40  CA       -12.9550  -81.6630   31.1670 C.3   141  LYS141      0.1693
     41  C        -14.0080  -80.9250   31.9660 C.2   141  LYS141      0.2591
     42  O        -13.9760  -79.7030   32.0160 O.2   141  LYS141     -0.2718
     43  CB       -13.5070  -82.0080   29.7990 C.3   141  LYS141      0.0285
     44  CG       -12.4710  -82.1340   28.7580 C.3   141  LYS141      0.0035
     45  CD       -13.1420  -82.2900   27.4100 C.3   141  LYS141      0.0206
     46  CE       -12.0780  -82.5960   26.3630 C.3   141  LYS141      0.1093
     47  NZ       -12.6530  -82.8730   25.0320 N.3   141  LYS141     -0.1314
     48  N        -14.9230  -81.6660   32.6090 N.am  142  ARG142     -0.1980
     49  CA       -15.9200  -81.0620   33.4830 C.3   142  ARG142      0.1597
     50  C        -15.2880  -80.2800   34.6490 C.2   142  ARG142      0.2287
     51  O        -15.7580  -79.1810   34.9920 O.2   142  ARG142     -0.2864
     52  CB       -16.9150  -82.1210   33.9860 C.3   142  ARG142      0.0334
     53  CG       -17.8010  -82.6850   32.8780 C.3   142  ARG142      0.0492
     54  CD       -18.8530  -83.6720   33.3910 C.3   142  ARG142      0.2205
     55  NE       -19.5310  -84.3110   32.2630 N.pl3 142  ARG142     -0.0865
     56  CZ       -20.4420  -85.2730   32.3600 C.cat 142  ARG142      0.5346
     57  NH1      -20.8160  -85.7420   33.5490 N.pl3 142  ARG142      0.1354
     58  NH2      -20.9800  -85.7630   31.2490 N.pl3 142  ARG142      0.1354
     59  N        -12.1720  -79.0760   34.5750 N.3   144  MET144     -0.1230
     60  CA       -11.5350  -77.9660   33.8510 C.3   144  MET144      0.1702
     61  C        -12.4960  -76.7980   33.6190 C.2   144  MET144      0.2592
     62  O        -12.1330  -75.6300   33.8030 O.2   144  MET144     -0.2718
     63  CB       -11.0290  -78.4910   32.5060 C.3   144  MET144      0.0401
     64  CG       -10.4590  -77.4460   31.5700 C.3   144  MET144      0.0596
     65  SD        -8.9810  -76.7490   32.2790 S.3   144  MET144     -0.1393
     66  CE        -8.5400  -75.5570   31.0050 C.3   144  MET144      0.0692
     67  N        -13.7110  -77.1210   33.1810 N.am  145  LYS145     -0.1980
     68  CA       -14.7710  -76.1380   32.9120 C.3   145  LYS145      0.1596
     69  C        -15.1530  -75.2930   34.1360 C.2   145  LYS145      0.2287
     70  O        -15.2780  -74.0630   34.0410 O.2   145  LYS145     -0.2864
     71  CB       -16.0000  -76.8530   32.3530 C.3   145  LYS145      0.0298
     72  CG       -17.1150  -75.9340   31.9100 C.3   145  LYS145      0.0038
     73  CD       -17.8940  -76.5840   30.7930 C.3   145  LYS145      0.0206
     74  CE       -19.2230  -75.8970   30.5070 C.3   145  LYS145      0.1093
     75  NZ       -19.8200  -76.5860   29.3110 N.3   145  LYS145     -0.1314
     76  N        -12.3960  -72.8080   34.6860 N.3   148  LEU148     -0.1231
     77  CA       -12.4270  -71.6800   33.7620 C.3   148  LEU148      0.1693
     78  C        -13.6430  -70.7780   33.9810 C.2   148  LEU148      0.2591
     79  O        -13.5730  -69.5720   33.7290 O.2   148  LEU148     -0.2718
     80  CB       -12.3370  -72.1610   32.3010 C.3   148  LEU148      0.0284
     81  CG       -11.0080  -72.8020   31.8660 C.3   148  LEU148      0.0019
     82  CD1      -11.1540  -73.2700   30.4340 C.3   148  LEU148      0.0001
     83  CD2       -9.8100  -71.8560   31.9930 C.3   148  LEU148      0.0001
     84  N        -14.7500  -71.3540   34.4610 N.am  149  GLU149     -0.1979
     85  CA       -15.9370  -70.5650   34.8210 C.3   149  GLU149      0.1602
     86  C        -15.6540  -69.6460   36.0150 C.2   149  GLU149      0.2287
     87  O        -16.1900  -68.5370   36.1000 O.2   149  GLU149     -0.2864
     88  CB       -17.1360  -71.4810   35.1110 C.3   149  GLU149      0.0415
     89  CG       -17.8040  -72.0630   33.8490 C.3   149  GLU149      0.1163
     90  CD       -18.8120  -73.1720   34.1640 C.2   149  GLU149      0.3649
     91  OE1      -18.7540  -73.7530   35.2810 O.co2 149  GLU149     -0.2457
     92  OE2      -19.6590  -73.4690   33.2930 O.co2 149  GLU149     -0.2457
     93  N        -12.4980  -68.4840   36.6860 N.3   151  ILE151     -0.1231
     94  CA       -11.6440  -67.4730   36.0340 C.3   151  ILE151      0.1692
     95  C        -12.5040  -66.3400   35.4500 C.2   151  ILE151      0.2592
     96  O        -12.2060  -65.1640   35.6530 O.2   151  ILE151     -0.2718
     97  CB       -10.7430  -68.0700   34.8850 C.3   151  ILE151      0.0266
     98  CG1       -9.7470  -69.1210   35.4070 C.3   151  ILE151      0.0019
     99  CG2      -10.0130  -66.9440   34.0980 C.3   151  ILE151      0.0020
    100  CD1       -8.4680  -68.5840   36.0230 C.3   151  ILE151      0.0001
    101  N        -13.5650  -66.7080   34.7360 N.am  152  SER152     -0.1952
    102  CA       -14.4400  -65.7380   34.0760 C.3   152  SER152      0.1924
    103  C        -15.2990  -64.9210   35.0590 C.2   152  SER152      0.2314
    104  O        -15.5550  -63.7350   34.8260 O.2   152  SER152     -0.2863
    105  CB       -15.3380  -66.4460   33.0610 C.3   152  SER152      0.2116
    106  OG       -15.9570  -65.5050   32.1940 O.3   152  SER152     -0.2180
    107  N         -6.3150  -65.6160   32.5170 N.3   214  LEU214     -0.1245
    108  CA        -7.2830  -64.6510   32.0180 C.3   214  LEU214      0.1561
    109  C         -6.8200  -63.9400   30.7280 C.2   214  LEU214      0.2260
    110  O         -7.6080  -63.8460   29.7730 O.2   214  LEU214     -0.2867
    111  CB        -7.6040  -63.6240   33.0990 C.3   214  LEU214      0.0270
    112  CG        -8.7260  -62.6260   32.8260 C.3   214  LEU214      0.0019
    113  CD1      -10.0860  -63.2780   32.5830 C.3   214  LEU214      0.0001
    114  CD2       -8.7470  -61.6750   34.0230 C.3   214  LEU214      0.0001
    115  N         -7.1570  -66.3460   27.7830 N.3   217  CYS217     -0.1221
    116  CA        -8.5490  -66.5080   27.3750 C.3   217  CYS217      0.1808
    117  C         -9.0950  -65.2480   26.7040 C.2   217  CYS217      0.2601
    118  O         -9.7470  -65.3320   25.6690 O.2   217  CYS217     -0.2717
    119  CB        -9.4300  -66.8860   28.5650 C.3   217  CYS217      0.0970
    120  SG        -8.9930  -68.4900   29.2760 S.3   217  CYS217     -0.0800
    121  N         -8.7940  -64.0800   27.2680 N.am  218  GLN218     -0.1979
    122  CA        -9.1980  -62.8240   26.6190 C.3   218  GLN218      0.1601
    123  C         -8.5570  -62.6730   25.2290 C.2   218  GLN218      0.2287
    124  O         -9.1870  -62.1990   24.2940 O.2   218  GLN218     -0.2864
    125  CB        -8.8330  -61.6240   27.4850 C.3   218  GLN218      0.0394
    126  CG        -9.5920  -61.5400   28.8080 C.3   218  GLN218      0.0908
    127  CD        -9.0170  -60.4750   29.7070 C.2   218  GLN218      0.2608
    128  OE1       -7.8340  -60.1260   29.6060 O.2   218  GLN218     -0.2717
    129  NE2       -9.8490  -59.9520   30.6100 N.am  218  GLN218     -0.0878
    130  N        -10.1080  -65.0090   22.7480 N.3   221  ALA221     -0.1245
    131  CA       -11.4600  -64.4950   22.5330 C.3   221  ALA221      0.1562
    132  C        -11.5200  -63.2990   21.5810 C.2   221  ALA221      0.2260
    133  O        -12.4770  -63.1780   20.8330 O.2   221  ALA221     -0.2867
    134  CB       -12.1530  -64.1890   23.8520 C.3   221  ALA221      0.0290
@<TRIPOS>BOND
     1   133   132    2
     2   132   131    1
     3     3     4    2
     4     3     2    1
     5     1     2    1
     6    10    11    1
     7    21    19    1
     8    17    18    2
     9    17    16    1
    10     2     5    1
    11    19    16    1
    12    19    20    1
    13   131   130    1
    14   131   134    1
    15     5     6    1
    16    22    20    1
    17    15    16    1
    18    15    12   am
    19    11    12    1
    20    11    14    1
    21    12    13    2
    22     8     7   ar
    23     6     7    1
    24     7     9   ar
    25   124   123    2
    26    47    46    1
    27   123   122    1
    28   118   117    2
    29    46    45    1
    30   122   121    1
    31   122   125    1
    32   117   121   am
    33   117   116    1
    34    23    24    1
    35    26    25    2
    36   116   115    1
    37   116   119    1
    38    45    44    1
    39   125   126    1
    40    38    36    1
    41    36    35    1
    42    25    24    1
    43    24    27    1
    44   119   120    1
    45    44    43    1
    46   126   127    1
    47    27    28    1
    48    75    74    1
    49    28    29    1
    50    31    32    1
    51    35    32    1
    52    35    37    1
    53   128   127    2
    54   127   129   am
    55   110   109    2
    56    43    40    1
    57    32    33    1
    58    29    30    1
    59    82    81    1
    60    74    73    1
    61   109   108    1
    62    73    72    1
    63    66    65    1
    64    40    39    1
    65    40    41    1
    66    58    56    1
    67    33    34    2
    68    64    65    1
    69    64    63    1
    70    81    83    1
    71    81    80    1
    72    72    71    1
    73    41    42    2
    74    41    48   am
    75   108   107    1
    76   108   111    1
    77   106   105    1
    78    55    56    2
    79    55    54    1
    80    80    77    1
    81    71    68    1
    82    56    57    1
    83    63    60    1
    84   113   112    1
    85    48    49    1
    86   112   111    1
    87   112   114    1
    88    53    54    1
    89    53    52    1
    90    68    67    1
    91    68    69    1
    92   105   102    1
    93    67    61   am
    94    92    90   ar
    95    49    52    1
    96    49    50    1
    97    61    62    2
    98    61    60    1
    99    79    78    2
   100    77    78    1
   101    77    76    1
   102    89    90    1
   103    89    88    1
   104    60    59    1
   105    78    84   am
   106    70    69    2
   107   102   101    1
   108   102   103    1
   109    99    97    1
   110    90    91   ar
   111    84    85    1
   112    50    51    2
   113   101    95   am
   114    85    88    1
   115    85    86    1
   116   104   103    2
   117    97    98    1
   118    97    94    1
   119    98   100    1
   120    95    96    2
   121    95    94    1
   122    86    87    2
   123    94    93    1
