@<TRIPOS>MOLECULE
tmp/2bcuD01.pdb
 87 79 0 0 0
SMALL
GASTEIGER

@<TRIPOS>ATOM
      1  N         26.2580   21.6170    8.0160 N.3   137  ARG137     -0.1245
      2  CA        26.0570   22.6550    9.0100 C.3   137  ARG137      0.1563
      3  C         26.9630   23.8030    8.5730 C.2   137  ARG137      0.2260
      4  O         27.8680   23.6130    7.7590 O.2   137  ARG137     -0.2867
      5  CB        26.4600   22.1540   10.3950 C.3   137  ARG137      0.0307
      6  CG        25.6790   20.9320   10.8520 C.3   137  ARG137      0.0489
      7  CD        26.0920   20.4790   12.2460 C.3   137  ARG137      0.2205
      8  NE        25.7750   21.4470   13.3000 N.pl3 137  ARG137     -0.0865
      9  CZ        24.5450   21.7250   13.7350 C.cat 137  ARG137      0.5346
     10  NH1       23.4930   21.1100   13.2050 N.pl3 137  ARG137      0.1354
     11  NH2       24.3650   22.6080   14.7160 N.pl3 137  ARG137      0.1354
     12  N         17.6690   29.0780   18.0420 N.3   167  GLY167     -0.1210
     13  CA        18.1710   27.7340   17.8150 C.3   167  GLY167      0.1956
     14  C         19.5780   27.5080   18.3330 C.2   167  GLY167      0.2612
     15  O         20.0160   28.1570   19.2890 O.2   167  GLY167     -0.2717
     16  N         20.2910   26.5840   17.6990 N.am  168  SER168     -0.1952
     17  CA        21.6520   26.2450   18.0900 C.3   168  SER168      0.1924
     18  C         22.5550   27.4690   18.1940 C.2   168  SER168      0.2314
     19  O         23.4890   27.4910   18.9990 O.2   168  SER168     -0.2863
     20  CB        22.2480   25.2430   17.0920 C.3   168  SER168      0.2116
     21  OG        22.2380   25.7740   15.7740 O.3   168  SER168     -0.2180
     22  N         22.0890   28.9680   21.4900 N.3   171  ARG171     -0.1245
     23  CA        22.5620   28.0400   22.5120 C.3   171  ARG171      0.1563
     24  C         24.0950   28.0120   22.5130 C.2   171  ARG171      0.2260
     25  O         24.7190   27.2560   23.2580 O.2   171  ARG171     -0.2867
     26  CB        21.9940   26.6290   22.2920 C.3   171  ARG171      0.0307
     27  CG        20.4610   26.5510   22.3670 C.3   171  ARG171      0.0489
     28  CD        19.9680   25.1490   22.7640 C.3   171  ARG171      0.2205
     29  NE        20.4490   24.1070   21.8570 N.pl3 171  ARG171     -0.0865
     30  CZ        19.9690   23.8830   20.6330 C.cat 171  ARG171      0.5346
     31  NH1       18.9820   24.6180   20.1520 N.pl3 171  ARG171      0.1354
     32  NH2       20.4940   22.9280   19.8770 N.pl3 171  ARG171      0.1354
     33  N         26.2980   27.1540   19.9530 N.3   173  LYS173     -0.1245
     34  CA        27.0050   26.1090   19.2280 C.3   173  LYS173      0.1561
     35  C         27.9790   26.6920   18.2140 C.2   173  LYS173      0.2260
     36  O         27.7920   27.8070   17.7310 O.2   173  LYS173     -0.2867
     37  CB        26.0040   25.1750   18.5430 C.3   173  LYS173      0.0271
     38  CG        25.2270   24.3270   19.5340 C.3   173  LYS173      0.0035
     39  CD        26.1830   23.5660   20.4470 C.3   173  LYS173      0.0206
     40  CE        25.4530   22.8300   21.5610 C.3   173  LYS173      0.1093
     41  NZ        24.7830   23.7770   22.4990 N.3   173  LYS173     -0.1314
     42  N         22.7330   24.1410   11.9950 N.3   177  GLY177     -0.1210
     43  CA        22.0800   23.4270   10.9100 C.3   177  GLY177      0.1956
     44  C         21.3630   24.3720    9.9590 C.2   177  GLY177      0.2611
     45  O         21.3070   24.1440    8.7510 O.2   177  GLY177     -0.2717
     46  N         20.8090   25.4410   10.5180 N.am  178  ASP178     -0.1973
     47  CA        20.0940   26.4510    9.7540 C.3   178  ASP178      0.1709
     48  C         20.1390   27.7270   10.5850 C.2   178  ASP178      0.2293
     49  O         20.7910   27.7780   11.6270 O.2   178  ASP178     -0.2864
     50  CB        18.6350   26.0400    9.5600 C.3   178  ASP178      0.1436
     51  CG        17.9030   25.8680   10.8780 C.2   178  ASP178      0.3671
     52  OD1       18.3240   26.4830   11.8870 O.co2 178  ASP178     -0.2456
     53  OD2       16.8980   25.1250   10.9120 O.co2 178  ASP178     -0.2456
     54  N         17.6780   30.4080   12.5580 N.3   180  ASP180     -0.1239
     55  CA        16.3320   30.6730   13.0600 C.3   180  ASP180      0.1674
     56  C         16.2220   32.1340   13.4740 C.2   180  ASP180      0.2266
     57  O         16.7820   32.5400   14.4940 O.2   180  ASP180     -0.2867
     58  CB        16.0300   29.7960   14.2740 C.3   180  ASP180      0.1410
     59  CG        16.2190   28.3260   13.9910 C.2   180  ASP180      0.3668
     60  OD1       15.5300   27.8090   13.0810 O.co2 180  ASP180     -0.2456
     61  OD2       17.0560   27.6980   14.6800 O.co2 180  ASP180     -0.2456
     62  N         19.5700   26.7900    4.9600 N.3   239  ARG239     -0.1245
     63  CA        18.1710   26.8120    5.3640 C.3   239  ARG239      0.1563
     64  C         17.9110   28.0020    6.2760 C.2   239  ARG239      0.2260
     65  O         18.6540   28.2460    7.2330 O.2   239  ARG239     -0.2867
     66  CB        17.7900   25.5120    6.0780 C.3   239  ARG239      0.0307
     67  CG        17.7680   24.2990    5.1430 C.3   239  ARG239      0.0489
     68  CD        17.3260   23.0180    5.8500 C.3   239  ARG239      0.2205
     69  NE        18.2640   22.6040    6.8850 N.pl3 239  ARG239     -0.0865
     70  CZ        17.9500   22.4930    8.1710 C.cat 239  ARG239      0.5346
     71  NH1       16.7190   22.7660    8.5780 N.pl3 239  ARG239      0.1354
     72  NH2       18.8680   22.1180    9.0530 N.pl3 239  ARG239      0.1354
     73  N         15.1050   26.3600   21.7020 N.3   259  GLY259     -0.1210
     74  CA        15.2280   24.9300   21.9200 C.3   259  GLY259      0.1956
     75  C         16.0880   24.5450   23.1150 C.2   259  GLY259      0.2613
     76  O         16.2050   25.3160   24.0700 O.2   259  GLY259     -0.2717
     77  N         16.6970   23.3590   23.0770 N.am  260  SER260     -0.1938
     78  CA        16.5870   22.4290   21.9530 C.3   260  SER260      0.2055
     79  C         15.1810   21.8380   21.8410 C.2   260  SER260      0.2642
     80  O         14.3170   22.1080   22.6740 O.2   260  SER260     -0.2714
     81  CB        17.5870   21.2890   22.1310 C.3   260  SER260      0.2130
     82  OG        17.1760   20.4380   23.1860 O.3   260  SER260     -0.2179
     83  N         14.9640   21.0190   20.8140 N.am  261  ALA261     -0.1977
     84  CA        13.6680   20.3830   20.6020 C.3   261  ALA261      0.1597
     85  C         13.3220   19.4910   21.7870 C.2   261  ALA261      0.2287
     86  O         12.2230   19.5660   22.3370 O.2   261  ALA261     -0.2864
     87  CB        13.6880   19.5550   19.3140 C.3   261  ALA261      0.0319
@<TRIPOS>BOND
     1    62    63    1
     2    67    68    1
     3    67    66    1
     4    63    66    1
     5    63    64    1
     6    68    69    1
     7    64    65    2
     8    69    70    2
     9     4     3    2
    10     1     2    1
    11    70    71    1
    12    70    72    1
    13     3     2    1
    14    45    44    2
    15     2     5    1
    16    50    47    1
    17    50    51    1
    18    47    46    1
    19    47    48    1
    20    44    46   am
    21    44    43    1
    22     5     6    1
    23    48    49    2
    24     6     7    1
    25    51    53   ar
    26    51    52   ar
    27    43    42    1
    28     7     8    1
    29    54    55    1
    30    55    56    1
    31    55    58    1
    32    60    59   ar
    33    10     9    1
    34     8     9    2
    35    56    57    2
    36     9    11    1
    37    59    58    1
    38    59    61   ar
    39    21    20    1
    40    20    17    1
    41    16    17    1
    42    16    14   am
    43    36    35    2
    44    13    12    1
    45    13    14    1
    46    17    18    1
    47    18    19    2
    48    35    34    1
    49    14    15    2
    50    37    34    1
    51    37    38    1
    52    34    33    1
    53    87    84    1
    54    38    39    1
    55    32    30    1
    56    31    30    1
    57    39    40    1
    58    84    83    1
    59    84    85    1
    60    30    29    2
    61    83    79   am
    62    22    23    1
    63    40    41    1
    64    73    74    1
    65    85    86    2
    66    79    78    1
    67    79    80    2
    68    29    28    1
    69    74    75    1
    70    78    81    1
    71    78    77    1
    72    81    82    1
    73    26    27    1
    74    26    23    1
    75    27    28    1
    76    23    24    1
    77    24    25    2
    78    77    75   am
    79    75    76    2
