@<TRIPOS>MOLECULE
tmp/2bd0D01.pdb
 111 109 0 0 0
SMALL
GASTEIGER

@<TRIPOS>ATOM
      1  N         33.0780   40.2380    9.5390 N.3    98  PHE98      -0.1241
      2  CA        32.8930   41.1980   10.6160 C.3    98  PHE98       0.1605
      3  C         33.0740   42.6390   10.1830 C.2    98  PHE98       0.2264
      4  O         33.7630   42.9240    9.2070 O.2    98  PHE98      -0.2867
      5  CB        33.8650   40.8830   11.7540 C.3    98  PHE98       0.0534
      6  CG        33.7810   39.4660   12.2360 C.ar   98  PHE98      -0.0203
      7  CD1       34.4940   38.4570   11.5970 C.ar   98  PHE98      -0.0042
      8  CD2       32.9510   39.1340   13.2990 C.ar   98  PHE98      -0.0042
      9  CE1       34.3790   37.1330   12.0110 C.ar   98  PHE98      -0.0003
     10  CE2       32.8270   37.8140   13.7230 C.ar   98  PHE98      -0.0003
     11  CZ        33.5430   36.8110   13.0760 C.ar   98  PHE98      -0.0000
     12  N         29.4680   28.8700   18.7820 N.3   144  SER144     -0.1202
     13  CA        30.3370   29.9230   19.3160 C.3   144  SER144      0.2020
     14  C         29.7010   30.5650   20.5380 C.2   144  SER144      0.2619
     15  O         28.5090   30.3950   20.7820 O.2   144  SER144     -0.2717
     16  CB        30.5540   31.0180   18.2610 C.3   144  SER144      0.2103
     17  OG        31.2190   32.1470   18.8170 O.3   144  SER144     -0.2182
     18  N         30.4890   31.2970   21.3200 N.am  145  VAL145     -0.1965
     19  CA        29.8970   31.9900   22.4480 C.3   145  VAL145      0.1727
     20  C         29.0110   33.0710   21.8160 C.2   145  VAL145      0.2616
     21  O         28.1070   33.6100   22.4600 O.2   145  VAL145     -0.2715
     22  CB        30.9600   32.6500   23.3670 C.3   145  VAL145      0.0290
     23  CG1       31.7350   31.5700   24.1110 C.3   145  VAL145      0.0023
     24  CG2       31.8940   33.5150   22.5570 C.3   145  VAL145      0.0023
     25  N         29.2670   33.3550   20.5380 N.am  146  ALA146     -0.1977
     26  CA        28.5060   34.3540   19.7840 C.3   146  ALA146      0.1597
     27  C         27.1140   33.8420   19.4330 C.2   146  ALA146      0.2287
     28  O         26.3350   34.5450   18.7830 O.2   146  ALA146     -0.2864
     29  CB        29.2540   34.7350   18.5060 C.3   146  ALA146      0.0319
     30  N         28.3060   40.8250   19.9200 N.3   151  PHE151     -0.1241
     31  CA        29.5350   41.6150   19.8640 C.3   151  PHE151      0.1605
     32  C         29.3110   42.6700   18.7780 C.2   151  PHE151      0.2264
     33  O         28.7220   42.3810   17.7370 O.2   151  PHE151     -0.2867
     34  CB        30.7490   40.7440   19.5120 C.3   151  PHE151      0.0534
     35  CG        31.0200   39.6420   20.5040 C.ar  151  PHE151     -0.0203
     36  CD1       30.3890   38.4100   20.3840 C.ar  151  PHE151     -0.0042
     37  CD2       31.9000   39.8410   21.5640 C.ar  151  PHE151     -0.0042
     38  CE1       30.6280   37.3890   21.3040 C.ar  151  PHE151     -0.0003
     39  CE2       32.1490   38.8270   22.4930 C.ar  151  PHE151     -0.0003
     40  CZ        31.5110   37.5980   22.3620 C.ar  151  PHE151     -0.0000
     41  N         29.8140   41.9440   15.1170 N.3   154  SER154     -0.1217
     42  CA        29.3080   40.6220   14.7590 C.3   154  SER154      0.1889
     43  C         27.8050   40.5460   14.5260 C.2   154  SER154      0.2288
     44  O         27.2060   39.5130   14.7880 O.2   154  SER154     -0.2866
     45  CB        29.6840   39.6150   15.8480 C.3   154  SER154      0.2089
     46  OG        31.0880   39.5700   16.0350 O.3   154  SER154     -0.2183
     47  N         27.3480   37.8170   11.9550 N.3   157  TYR157     -0.1241
     48  CA        27.9100   36.5910   12.5030 C.3   157  TYR157      0.1605
     49  C         27.0130   36.0640   13.6270 C.2   157  TYR157      0.2264
     50  O         26.7240   34.8620   13.6860 O.2   157  TYR157     -0.2867
     51  CB        29.3250   36.8510   13.0310 C.3   157  TYR157      0.0534
     52  CG        30.0530   35.6090   13.4940 C.ar  157  TYR157     -0.0201
     53  CD1       30.4530   34.6270   12.5850 C.ar  157  TYR157     -0.0009
     54  CD2       30.3680   35.4260   14.8420 C.ar  157  TYR157     -0.0009
     55  CE1       31.1560   33.4990   13.0070 C.ar  157  TYR157      0.0417
     56  CE2       31.0680   34.3030   15.2760 C.ar  157  TYR157      0.0417
     57  CZ        31.4620   33.3430   14.3510 C.ar  157  TYR157      0.1957
     58  OH        32.1740   32.2390   14.7710 O.3   157  TYR157     -0.2866
     59  N         32.9070   27.8910   21.5660 N.3   187  PRO187     -0.2102
     60  CA        34.1610   28.5090   21.9890 C.3   187  PRO187      0.1504
     61  C         34.2350   30.0190   21.8350 C.2   187  PRO187      0.2576
     62  O         33.5070   30.6260   21.0450 O.2   187  PRO187     -0.2718
     63  CB        35.2010   27.8020   21.1260 C.3   187  PRO187      0.0282
     64  CG        34.4750   27.5640   19.8560 C.3   187  PRO187      0.0208
     65  CD        33.0510   27.2230   20.2610 C.3   187  PRO187      0.0893
     66  N         35.1180   30.6090   22.6330 N.am  188  GLY188     -0.1943
     67  CA        35.3850   32.0300   22.5630 C.3   188  GLY188      0.2014
     68  C         36.5550   32.1200   21.5900 C.2   188  GLY188      0.2639
     69  O         36.7140   31.2370   20.7500 O.2   188  GLY188     -0.2714
     70  N         37.4020   33.1360   21.7210 N.am  189  ALA189     -0.1963
     71  CA        38.5220   33.3160   20.7940 C.3   189  ALA189      0.1728
     72  C         39.5420   32.1790   20.7050 C.2   189  ALA189      0.2616
     73  O         40.1610   31.8000   21.6980 O.2   189  ALA189     -0.2715
     74  CB        39.2440   34.6170   21.1090 C.3   189  ALA189      0.0334
     75  N         39.7110   31.6540   19.4910 N.am  190  VAL190     -0.1977
     76  CA        40.6720   30.5850   19.2140 C.3   190  VAL190      0.1596
     77  C         41.5960   31.0760   18.1000 C.2   190  VAL190      0.2287
     78  O         41.1330   31.5470   17.0580 O.2   190  VAL190     -0.2864
     79  CB        39.9850   29.2870   18.7190 C.3   190  VAL190      0.0276
     80  CG1       41.0280   28.1960   18.5400 C.3   190  VAL190      0.0022
     81  CG2       38.9300   28.8300   19.7140 C.3   190  VAL190      0.0022
     82  N         41.0290   32.0120   10.7090 N.3   194  MET194     -0.1230
     83  CA        39.8270   32.8290   10.6360 C.3   194  MET194      0.1702
     84  C         40.1130   34.2570   11.0970 C.2   194  MET194      0.2592
     85  O         39.4560   35.2020   10.6630 O.2   194  MET194     -0.2718
     86  CB        38.7220   32.2170   11.5010 C.3   194  MET194      0.0401
     87  CG        37.3970   32.9500   11.4230 C.3   194  MET194      0.0596
     88  SD        36.1260   32.1420   12.4140 S.3   194  MET194     -0.1393
     89  CE        34.6830   33.0830   11.9330 C.3   194  MET194      0.0692
     90  N         41.1060   34.4110   11.9670 N.am  195  TRP195     -0.1976
     91  CA        41.4540   35.7270   12.4950 C.3   195  TRP195      0.1640
     92  C         42.4430   36.5090   11.6420 C.2   195  TRP195      0.2290
     93  O         42.5340   37.7320   11.7570 O.2   195  TRP195     -0.2864
     94  CB        42.0240   35.5990   13.9080 C.3   195  TRP195      0.0576
     95  CG        41.0150   35.2210   14.9360 C.ar  195  TRP195      0.0006
     96  CD1       40.5180   33.9740   15.1860 C.ar  195  TRP195      0.0946
     97  CD2       40.3650   36.1050   15.8540 C.ar  195  TRP195      0.0152
     98  NE1       39.5970   34.0270   16.2070 N.ar  195  TRP195     -0.2442
     99  CE2       39.4840   35.3240   16.6350 C.ar  195  TRP195      0.0810
    100  CE3       40.4410   37.4850   16.0940 C.ar  195  TRP195      0.0012
    101  CZ2       38.6840   35.8770   17.6420 C.ar  195  TRP195      0.0191
    102  CZ3       39.6440   38.0360   17.0960 C.ar  195  TRP195      0.0001
    103  CH2       38.7780   37.2310   17.8570 C.ar  195  TRP195      0.0015
    104  N         36.3490   37.1950   27.0580 N.3   239  ASP239     -0.1239
    105  CA        36.2920   37.5900   25.6560 C.3   239  ASP239      0.1674
    106  C         37.1970   38.7870   25.4040 C.2   239  ASP239      0.2266
    107  O         37.3430   39.6570   26.2630 O.2   239  ASP239     -0.2867
    108  CB        34.8560   37.9420   25.2460 C.3   239  ASP239      0.1410
    109  CG        33.9340   36.7430   25.2620 C.2   239  ASP239      0.3668
    110  OD1       34.4280   35.6190   25.0540 O.co2 239  ASP239     -0.2456
    111  OD2       32.7140   36.9270   25.4620 O.co2 239  ASP239     -0.2456
@<TRIPOS>BOND
     1     4     3    2
     2     1     2    1
     3     3     2    1
     4     2     5    1
     5    83    82    1
     6    83    84    1
     7    83    86    1
     8    85    84    2
     9    84    90   am
    10    87    86    1
    11    87    88    1
    12     7     9   ar
    13     7     6   ar
    14    92    93    2
    15    92    91    1
    16     5     6    1
    17    89    88    1
    18    47    48    1
    19    90    91    1
    20     9    11   ar
    21     6     8   ar
    22    91    94    1
    23    48    51    1
    24    48    49    1
    25    53    55   ar
    26    53    52   ar
    27    55    57   ar
    28    51    52    1
    29    11    10   ar
    30     8    10   ar
    31    52    54   ar
    32    49    50    2
    33    94    95    1
    34    57    58    1
    35    57    56   ar
    36    43    42    1
    37    43    44    2
    38    42    41    1
    39    42    45    1
    40    54    56   ar
    41    95    96   ar
    42    95    97   ar
    43    96    98   ar
    44    45    46    1
    45    97   100   ar
    46    97    99   ar
    47   100   102   ar
    48    98    99   ar
    49    99   101   ar
    50    78    77    2
    51   102   103   ar
    52   101   103   ar
    53    33    32    2
    54    77    76    1
    55    16    17    1
    56    16    13    1
    57    29    26    1
    58    80    79    1
    59    79    76    1
    60    79    81    1
    61    32    31    1
    62    12    13    1
    63    28    27    2
    64    76    75    1
    65    13    14    1
    66    27    26    1
    67    75    72   am
    68    34    31    1
    69    34    35    1
    70    26    25    1
    71    64    65    1
    72    64    63    1
    73    31    30    1
    74    65    59    1
    75    36    35   ar
    76    36    38   ar
    77    35    37   ar
    78    25    20   am
    79    14    15    2
    80    14    18   am
    81    72    71    1
    82    72    73    2
    83    69    68    2
    84    71    74    1
    85    71    70    1
    86    62    61    2
    87    63    60    1
    88    38    40   ar
    89    18    19    1
    90    37    39   ar
    91    59    60    1
    92    68    70   am
    93    68    67    1
    94    20    19    1
    95    20    21    2
    96    61    60    1
    97    61    66   am
    98    40    39   ar
    99    19    22    1
   100    24    22    1
   101    67    66    1
   102    22    23    1
   103   110   109   ar
   104   108   109    1
   105   108   105    1
   106   109   111   ar
   107   106   105    1
   108   106   107    2
   109   105   104    1
