@<TRIPOS>MOLECULE
tmp/2bd1B00.pdb
 146 143 0 0 0
SMALL
GASTEIGER

@<TRIPOS>ATOM
      1  N          6.9230   19.6940   18.7070 N.3     2  LEU2       -0.1245
      2  CA         7.8810   18.9650   17.8860 C.3     2  LEU2        0.1561
      3  C          7.3310   18.4280   16.5730 C.2     2  LEU2        0.2260
      4  O          7.9340   18.6230   15.5160 O.2     2  LEU2       -0.2867
      5  CB         8.4810   17.8240   18.7050 C.3     2  LEU2        0.0270
      6  CG         9.5630   16.9620   18.0490 C.3     2  LEU2        0.0019
      7  CD1       10.5800   17.8230   17.3050 C.3     2  LEU2        0.0001
      8  CD2       10.2500   16.1420   19.1330 C.3     2  LEU2        0.0001
      9  N          7.0080   21.1610   14.1540 N.3     5  PHE5       -0.1227
     10  CA         8.2940   21.6630   13.6850 C.3     5  PHE5        0.1736
     11  C          8.6940   20.7360   12.5370 C.2     5  PHE5        0.2595
     12  O          9.3010   21.1600   11.5550 O.2     5  PHE5       -0.2718
     13  CB         9.3260   21.5980   14.8190 C.3     5  PHE5        0.0547
     14  CG        10.7110   22.0350   14.4190 C.ar    5  PHE5       -0.0202
     15  CD1       10.9020   23.1630   13.6230 C.ar    5  PHE5       -0.0042
     16  CD2       11.8280   21.3410   14.8710 C.ar    5  PHE5       -0.0042
     17  CE1       12.1860   23.5950   13.2850 C.ar    5  PHE5       -0.0003
     18  CE2       13.1190   21.7640   14.5400 C.ar    5  PHE5       -0.0003
     19  CZ        13.2970   22.8940   13.7460 C.ar    5  PHE5       -0.0000
     20  N          8.3270   19.4640   12.6690 N.am    6  ASN6       -0.1974
     21  CA         8.6180   18.4680   11.6440 C.3     6  ASN6        0.1688
     22  C          7.8880   18.8750   10.3670 C.2     6  ASN6        0.2292
     23  O          8.4240   18.7580    9.2620 O.2     6  ASN6       -0.2864
     24  CB         8.1570   17.0850   12.1230 C.3     6  ASN6        0.1181
     25  CG         8.3170   16.0060   11.0650 C.2     6  ASN6        0.2629
     26  OD1        7.4400   15.8100   10.2260 O.2     6  ASN6       -0.2716
     27  ND2        9.4440   15.3060   11.0980 N.am    6  ASN6       -0.0877
     28  N          9.7070   21.9250    8.5880 N.3     9  ILE9       -0.1245
     29  CA        10.9110   21.5200    7.8750 C.3     9  ILE9        0.1561
     30  C         10.5440   20.8150    6.5720 C.2     9  ILE9        0.2260
     31  O         11.1760   21.0370    5.5380 O.2     9  ILE9       -0.2867
     32  CB        11.7870   20.5820    8.7360 C.3     9  ILE9        0.0252
     33  CG1       12.1980   21.2950   10.0270 C.3     9  ILE9        0.0019
     34  CG2       13.0290   20.1690    7.9600 C.3     9  ILE9        0.0019
     35  CD1       12.9320   20.4040   11.0100 C.3     9  ILE9        0.0001
     36  N         12.9650   14.9380    8.5690 N.3    18  PRO18      -0.2102
     37  CA        13.3160   15.7470    9.7400 C.3    18  PRO18       0.1504
     38  C         13.8740   15.0350   10.9730 C.2    18  PRO18       0.2575
     39  O         15.0040   15.3000   11.3780 O.2    18  PRO18      -0.2718
     40  CB        12.0210   16.4960   10.0340 C.3    18  PRO18       0.0282
     41  CG        11.4800   16.7360    8.6520 C.3    18  PRO18       0.0208
     42  CD        11.6730   15.3790    8.0070 C.3    18  PRO18       0.0893
     43  N         13.0910   14.1350   11.5600 N.am   19  LEU19      -0.1980
     44  CA        13.5110   13.4240   12.7690 C.3    19  LEU19       0.1596
     45  C         14.7160   12.5140   12.6000 C.2    19  LEU19       0.2287
     46  O         15.3050   12.0630   13.5860 O.2    19  LEU19      -0.2864
     47  CB        12.3480   12.6080   13.3370 C.3    19  LEU19       0.0297
     48  CG        11.0820   13.4010   13.6660 C.3    19  LEU19       0.0022
     49  CD1       10.0500   12.4710   14.2790 C.3    19  LEU19       0.0001
     50  CD2       11.4130   14.5440   14.6160 C.3    19  LEU19       0.0001
     51  N         17.9550   15.5770   10.7420 N.3    22  PHE22      -0.1227
     52  CA        18.4160   16.6320   11.6360 C.3    22  PHE22       0.1736
     53  C         18.5350   16.2560   13.1070 C.2    22  PHE22       0.2595
     54  O         18.3450   17.0920   13.9900 O.2    22  PHE22      -0.2718
     55  CB        17.5180   17.8580   11.4680 C.3    22  PHE22       0.0547
     56  CG        17.4650   18.3650   10.0540 C.ar   22  PHE22      -0.0202
     57  CD1       18.5690   18.9970    9.4870 C.ar   22  PHE22      -0.0042
     58  CD2       16.3330   18.1630    9.2700 C.ar   22  PHE22      -0.0042
     59  CE1       18.5480   19.4170    8.1560 C.ar   22  PHE22      -0.0003
     60  CE2       16.3020   18.5780    7.9400 C.ar   22  PHE22      -0.0003
     61  CZ        17.4110   19.2060    7.3810 C.ar   22  PHE22      -0.0000
     62  N         18.8550   14.9920   13.3590 N.am   23  ASN23      -0.1974
     63  CA        19.0460   14.4910   14.7130 C.3    23  ASN23       0.1688
     64  C         20.4110   13.8090   14.7310 C.2    23  ASN23       0.2292
     65  O         20.7780   13.1280   13.7730 O.2    23  ASN23      -0.2864
     66  CB        17.9490   13.4890   15.0820 C.3    23  ASN23       0.1181
     67  CG        18.0850   12.9820   16.5040 C.2    23  ASN23       0.2629
     68  OD1       18.2080   13.7660   17.4410 O.2    23  ASN23      -0.2716
     69  ND2       18.0620   11.6640   16.6720 N.am   23  ASN23      -0.0877
     70  N         22.4490   19.8100   16.8240 N.3    29  CYS29      -0.1221
     71  CA        21.2370   19.2210   16.2720 C.3    29  CYS29       0.1808
     72  C         20.8790   17.9070   16.9490 C.2    29  CYS29       0.2602
     73  O         21.4330   16.8520   16.6310 O.2    29  CYS29      -0.2717
     74  CB        21.3920   19.0170   14.7700 C.3    29  CYS29       0.0970
     75  SG        21.7940   20.5480   13.8660 S.3    29  CYS29      -0.0800
     76  N         19.9280   17.9860   17.8690 N.am   30  GLY30      -0.1942
     77  CA        19.5060   16.8260   18.6170 C.3    30  GLY30       0.2014
     78  C         19.2800   17.2820   20.0430 C.2    30  GLY30       0.2638
     79  O         19.5230   18.4450   20.3820 O.2    30  GLY30      -0.2714
     80  N         18.8240   16.3750   20.8900 N.am   31  LEU31      -0.1977
     81  CA        18.5740   16.7270   22.2740 C.3    31  LEU31       0.1596
     82  C         19.8140   17.2670   22.9730 C.2    31  LEU31       0.2287
     83  O         20.8460   16.6020   23.0430 O.2    31  LEU31      -0.2864
     84  CB        17.9990   15.5240   23.0110 C.3    31  LEU31       0.0297
     85  CG        16.9650   16.4710   23.6300 C.3    31  LEU31       0.0022
     86  CD1       15.6230   16.3440   22.9440 C.3    31  LEU31       0.0001
     87  CD2       16.8330   16.1660   25.1080 C.3    31  LEU31       0.0001
     88  N         20.8820   24.9270   14.5420 N.3    45  CYS45      -0.1235
     89  CA        20.3660   24.2020   15.7050 C.3    45  CYS45       0.1677
     90  C         20.7330   24.8810   17.0160 C.2    45  CYS45       0.2270
     91  O         19.9600   24.8500   17.9710 O.2    45  CYS45      -0.2867
     92  CB        20.8660   22.7570   15.7160 C.3    45  CYS45       0.0956
     93  SG        20.2710   21.8110   14.2810 S.3    45  CYS45      -0.0801
     94  N         18.3790   27.6480   17.4400 N.3    48  HIS48      -0.1226
     95  CA        17.0860   27.0560   17.7810 C.3    48  HIS48       0.1752
     96  C         17.0510   26.6070   19.2460 C.2    48  HIS48       0.2596
     97  O         16.0500   26.8160   19.9370 O.2    48  HIS48      -0.2718
     98  CB        16.7940   25.8720   16.8470 C.3    48  HIS48       0.0759
     99  CG        15.4380   25.2630   17.0350 C.ar   48  HIS48       0.0818
    100  ND1       15.2540   24.0040   17.5650 N.ar   48  HIS48      -0.2268
    101  CD2       14.2000   25.7280   16.7380 C.ar   48  HIS48       0.1154
    102  CE1       13.9650   23.7170   17.5830 C.ar   48  HIS48       0.1986
    103  NE2       13.3020   24.7470   17.0860 N.ar   48  HIS48      -0.2212
    104  N         18.1370   25.9940   19.7150 N.am   49  ASP49      -0.1974
    105  CA        18.2230   25.5420   21.1070 C.3    49  ASP49       0.1709
    106  C         18.0650   26.7450   22.0400 C.2    49  ASP49       0.2293
    107  O         17.3290   26.6900   23.0250 O.2    49  ASP49      -0.2864
    108  CB        19.5820   24.8900   21.4030 C.3    49  ASP49       0.1436
    109  CG        19.7180   23.4920   20.8270 C.2    49  ASP49       0.3671
    110  OD1       18.7910   23.0180   20.1440 O.co2  49  ASP49      -0.2456
    111  OD2       20.7750   22.8650   21.0670 O.co2  49  ASP49      -0.2456
    112  N         14.4830   27.9930   22.2180 N.3    52  TYR52      -0.1241
    113  CA        13.6410   27.1550   23.0710 C.3    52  TYR52       0.1605
    114  C         13.9260   27.4750   24.5320 C.2    52  TYR52       0.2264
    115  O         13.0230   27.4830   25.3690 O.2    52  TYR52      -0.2867
    116  CB        13.9160   25.6740   22.7930 C.3    52  TYR52       0.0534
    117  CG        13.0060   25.0650   21.7440 C.ar   52  TYR52      -0.0201
    118  CD1       12.4060   25.8560   20.7600 C.ar   52  TYR52      -0.0009
    119  CD2       12.7540   23.6960   21.7300 C.ar   52  TYR52      -0.0009
    120  CE1       11.5750   25.2940   19.7890 C.ar   52  TYR52       0.0417
    121  CE2       11.9290   23.1210   20.7640 C.ar   52  TYR52       0.0417
    122  CZ        11.3450   23.9230   19.7980 C.ar   52  TYR52       0.1957
    123  OH        10.5510   23.3380   18.8380 O.3    52  TYR52      -0.2866
    124  N          8.2340   21.5610   23.2760 N.3    69  TYR69      -0.1241
    125  CA         8.1090   20.2330   22.6840 C.3    69  TYR69       0.1605
    126  C          6.6860   19.7290   22.4790 C.2    69  TYR69       0.2264
    127  O          6.4070   19.0500   21.4910 O.2    69  TYR69      -0.2867
    128  CB         8.8980   19.2230   23.5230 C.3    69  TYR69       0.0534
    129  CG        10.3690   19.5570   23.6010 C.ar   69  TYR69      -0.0201
    130  CD1       11.2130   19.3300   22.5150 C.ar   69  TYR69      -0.0009
    131  CD2       10.9050   20.1630   24.7360 C.ar   69  TYR69      -0.0009
    132  CE1       12.5600   19.7030   22.5540 C.ar   69  TYR69       0.0417
    133  CE2       12.2530   20.5420   24.7890 C.ar   69  TYR69       0.0417
    134  CZ        13.0700   20.3090   23.6930 C.ar   69  TYR69       0.1957
    135  OH        14.3940   20.6890   23.7310 O.3    69  TYR69      -0.2866
    136  N         17.5970   25.9200    8.1380 N.3   106  PHE106     -0.1241
    137  CA        17.9710   24.5990    7.6290 C.3   106  PHE106      0.1605
    138  C         17.9480   24.5660    6.1060 C.2   106  PHE106      0.2264
    139  O         18.8080   23.9490    5.4740 O.2   106  PHE106     -0.2867
    140  CB        17.0090   23.5140    8.1310 C.3   106  PHE106      0.0534
    141  CG        17.0990   23.2310    9.6120 C.ar  106  PHE106     -0.0203
    142  CD1       18.1240   23.7610   10.3900 C.ar  106  PHE106     -0.0042
    143  CD2       16.1640   22.3950   10.2200 C.ar  106  PHE106     -0.0042
    144  CE1       18.2150   23.4590   11.7500 C.ar  106  PHE106     -0.0003
    145  CE2       16.2480   22.0900   11.5780 C.ar  106  PHE106     -0.0003
    146  CZ        17.2750   22.6230   12.3430 C.ar  106  PHE106     -0.0000
@<TRIPOS>BOND
     1   139   138    2
     2    31    30    2
     3   138   137    1
     4    30    29    1
     5    61    60   ar
     6    61    59   ar
     7   137   140    1
     8   137   136    1
     9    29    28    1
    10    29    32    1
    11    60    58   ar
    12    34    32    1
    13    42    36    1
    14    42    41    1
    15   140   141    1
    16    59    57   ar
    17    36    37    1
    18    41    40    1
    19    32    33    1
    20    23    22    2
    21    58    56   ar
    22    57    56   ar
    23   141   143   ar
    24   141   142   ar
    25    37    40    1
    26    37    38    1
    27    33    35    1
    28    56    55    1
    29   143   145   ar
    30    26    25    2
    31    22    21    1
    32   142   144   ar
    33    51    52    1
    34    38    39    2
    35    38    43   am
    36    25    27   am
    37    25    24    1
    38    55    52    1
    39    12    11    2
    40    43    44    1
    41   145   146   ar
    42    52    53    1
    43    21    24    1
    44    21    20    1
    45   144   146   ar
    46    11    20   am
    47    11    10    1
    48    45    44    1
    49    45    46    2
    50    44    47    1
    51    53    62   am
    52    53    54    2
    53    17    15   ar
    54    17    19   ar
    55    47    48    1
    56    62    63    1
    57    15    14   ar
    58    48    49    1
    59    48    50    1
    60    10     9    1
    61    10    13    1
    62    19    18   ar
    63    65    64    2
    64    75    93    1
    65    75    74    1
    66    93    92    1
    67    14    13    1
    68    14    16   ar
    69    18    16   ar
    70    88    89    1
    71    63    64    1
    72    63    66    1
    73    74    71    1
    74    66    67    1
    75     4     3    2
    76    89    92    1
    77    89    90    1
    78    71    70    1
    79    71    72    1
    80    67    69   am
    81    67    68    2
    82     3     2    1
    83    73    72    2
    84   101    99   ar
    85   101   103   ar
    86    98    99    1
    87    98    95    1
    88    72    76   am
    89    90    91    2
    90    99   100   ar
    91   103   102   ar
    92     7     6    1
    93    94    95    1
    94   100   102   ar
    95    95    96    1
    96    76    77    1
    97     2     5    1
    98     2     1    1
    99     6     5    1
   100     6     8    1
   101    77    78    1
   102   123   122    1
   103    96   104   am
   104    96    97    2
   105   104   105    1
   106   120   122   ar
   107   120   118   ar
   108   122   121   ar
   109    78    79    2
   110    78    80   am
   111   110   109   ar
   112   118   117   ar
   113   121   119   ar
   114   109   111   ar
   115   109   108    1
   116    80    81    1
   117   105   108    1
   118   105   106    1
   119   127   126    2
   120   119   117   ar
   121   117   116    1
   122   106   107    2
   123   112   113    1
   124    81    82    1
   125    81    84    1
   126   126   125    1
   127   130   132   ar
   128   130   129   ar
   129   132   134   ar
   130   125   124    1
   131   125   128    1
   132   116   113    1
   133    86    85    1
   134    82    83    2
   135    84    85    1
   136   113   114    1
   137   128   129    1
   138   129   131   ar
   139    85    87    1
   140   134   135    1
   141   134   133   ar
   142   114   115    2
   143   131   133   ar
