@<TRIPOS>MOLECULE
tmp/2bd4B00.pdb
 91 89 0 0 0
SMALL
GASTEIGER

@<TRIPOS>ATOM
      1  N         -0.6080   25.6980   32.1960 N.3    29  THR29      -0.1203
      2  CA        -1.6340   24.7470   32.5890 C.3    29  THR29       0.1994
      3  C         -2.3280   25.0280   33.9300 C.2    29  THR29       0.2618
      4  O         -3.4970   24.6670   34.0980 O.2    29  THR29      -0.2717
      5  CB        -1.0930   23.2550   32.5550 C.3    29  THR29       0.1784
      6  OG1       -2.1910   22.3480   32.7720 O.3    29  THR29      -0.2211
      7  CG2        0.0250   23.0420   33.5930 C.3    29  THR29       0.0376
      8  N         -1.6190   25.6980   34.8390 N.am   30  CYS30      -0.1969
      9  CA        -2.1160   25.9090   36.2090 C.3    30  CYS30       0.1712
     10  C         -1.4790   27.0960   36.8410 C.2    30  CYS30       0.2296
     11  O         -0.4180   27.5580   36.3880 O.2    30  CYS30      -0.2864
     12  CB        -1.8040   24.6830   37.1100 C.3    30  CYS30       0.0983
     13  SG        -3.0030   23.3270   36.8710 S.3    30  CYS30      -0.0798
     14  N         -3.6160   17.8750   41.3860 N.3    45  HIS45      -0.1241
     15  CA        -4.1230   17.4350   40.0840 C.3    45  HIS45       0.1621
     16  C         -3.4140   18.0880   38.9300 C.2    45  HIS45       0.2264
     17  O         -3.4820   17.5900   37.8050 O.2    45  HIS45      -0.2867
     18  CB        -5.6400   17.5950   40.0040 C.3    45  HIS45       0.0745
     19  CG        -6.1220   18.9660   39.6210 C.ar   45  HIS45       0.0817
     20  ND1       -6.7520   19.8130   40.5310 N.ar   45  HIS45      -0.2268
     21  CD2       -6.1480   19.6030   38.4170 C.ar   45  HIS45       0.1154
     22  CE1       -7.1230   20.9260   39.8960 C.ar   45  HIS45       0.1986
     23  NE2       -6.7560   20.8280   38.6160 N.ar   45  HIS45      -0.2212
     24  N        -13.5180   30.8300   39.3700 N.3   183  GLY183     -0.1210
     25  CA       -12.3270   30.2770   38.6750 C.3   183  GLY183      0.1956
     26  C        -12.7960   29.4870   37.4690 C.2   183  GLY183      0.2612
     27  O        -14.0180   29.2650   37.3130 O.2   183  GLY183     -0.2717
     28  N        -11.8480   29.0420   36.6400 N.am  184  CYS184     -0.1956
     29  CA       -12.2270   28.2380   35.4720 C.3   184  CYS184      0.1843
     30  C        -10.9720   27.5170   35.0120 C.2   184  CYS184      0.2625
     31  O         -9.8980   27.7210   35.5960 O.2   184  CYS184     -0.2714
     32  CB       -12.7620   29.1620   34.3930 C.3   184  CYS184      0.0997
     33  SG       -13.8520   28.2940   33.1550 S.3   184  CYS184     -0.0797
     34  N        -11.0850   26.6150   34.0360 N.am  185  GLN185     -0.1963
     35  CA        -9.9220   25.7660   33.7780 C.3   185  GLN185      0.1733
     36  C         -8.6450   26.5910   33.5380 C.2   185  GLN185      0.2617
     37  O         -8.6420   27.5650   32.7650 O.2   185  GLN185     -0.2715
     38  CB       -10.1940   24.8730   32.5770 C.3   185  GLN185      0.0408
     39  CG       -11.0710   23.6200   32.9290 C.3   185  GLN185      0.0908
     40  CD       -12.5560   23.9270   33.1080 C.2   185  GLN185      0.2608
     41  OE1      -13.0200   25.0220   32.7820 O.2   185  GLN185     -0.2717
     42  NE2      -13.3080   22.9690   33.7100 N.am  185  GLN185     -0.0878
     43  N         -7.5410   26.1740   34.1820 N.am  186  GLY186     -0.1940
     44  CA        -6.2970   26.9410   34.0100 C.3   186  GLY186      0.2014
     45  C         -5.9690   27.7750   35.2460 C.2   186  GLY186      0.2639
     46  O         -4.8180   28.2590   35.3890 O.2   186  GLY186     -0.2714
     47  N         -6.9630   27.9470   36.1180 N.am  187  ASP187     -0.1957
     48  CA        -6.7340   28.6450   37.4090 C.3   187  ASP187      0.1840
     49  C         -6.3140   27.6930   38.4850 C.2   187  ASP187      0.2622
     50  O         -5.8250   28.1190   39.5360 O.2   187  ASP187     -0.2715
     51  CB        -8.0330   29.3430   37.8240 C.3   187  ASP187      0.1450
     52  CG        -8.3440   30.5490   36.9630 C.2   187  ASP187      0.3671
     53  OD1       -7.4190   31.2730   36.5520 O.co2 187  ASP187     -0.2456
     54  OD2       -9.5400   30.8330   36.7280 O.co2 187  ASP187     -0.2456
     55  N         -6.6110   26.3920   38.2910 N.am  188  SER188     -0.1950
     56  CA        -6.2540   25.3780   39.2940 C.3   188  SER188      0.1924
     57  C         -4.8480   25.5510   39.8240 C.2   188  SER188      0.2314
     58  O         -3.9160   25.8630   39.0530 O.2   188  SER188     -0.2863
     59  CB        -6.3100   24.0010   38.6610 C.3   188  SER188      0.2116
     60  OG        -7.6770   23.6060   38.4980 O.3   188  SER188     -0.2180
     61  N         -6.6500   26.7470   44.2870 N.3   206  THR206     -0.1203
     62  CA        -7.8010   26.4510   43.4240 C.3   206  THR206      0.1994
     63  C         -7.8500   24.9830   43.0020 C.2   206  THR206      0.2619
     64  O         -6.8680   24.4500   42.5390 O.2   206  THR206     -0.2717
     65  CB        -7.7520   27.3140   42.2040 C.3   206  THR206      0.1784
     66  OG1       -7.6680   28.6540   42.6930 O.3   206  THR206     -0.2211
     67  CG2       -9.1200   27.1780   41.3730 C.3   206  THR206      0.0376
     68  N         -9.0030   24.3480   43.2520 N.am  207  SER207     -0.1937
     69  CA        -9.1370   22.9000   43.0340 C.3   207  SER207      0.2055
     70  C        -10.1770   22.4970   41.9800 C.2   207  SER207      0.2643
     71  O         -9.8340   21.7830   41.0270 O.2   207  SER207     -0.2714
     72  CB        -9.4710   22.1620   44.3680 C.3   207  SER207      0.2130
     73  OG        -9.3910   20.6990   44.2190 O.3   207  SER207     -0.2179
     74  N        -11.4350   22.9020   42.1690 N.am  208  PHE208     -0.1959
     75  CA       -12.4550   22.4780   41.1910 C.3   208  PHE208      0.1771
     76  C        -13.6300   23.3870   41.1100 C.2   208  PHE208      0.2619
     77  O        -13.9050   24.1370   42.0060 O.2   208  PHE208     -0.2715
     78  CB       -12.9030   21.0130   41.4170 C.3   208  PHE208      0.0574
     79  CG       -13.5610   20.7420   42.7450 C.ar  208  PHE208     -0.0200
     80  CD1      -12.8250   20.2880   43.8290 C.ar  208  PHE208     -0.0042
     81  CD2      -14.9490   20.8810   42.8790 C.ar  208  PHE208     -0.0042
     82  CE1      -13.4840   19.9760   45.0690 C.ar  208  PHE208     -0.0003
     83  CE2      -15.6020   20.6020   44.1100 C.ar  208  PHE208     -0.0003
     84  CZ       -14.8410   20.1450   45.1960 C.ar  208  PHE208     -0.0000
     85  N        -14.2940   23.2950   39.9690 N.am  209  VAL209     -0.1977
     86  CA       -15.6160   23.8650   39.7760 C.3   209  VAL209      0.1596
     87  C        -16.5820   22.7720   39.2960 C.2   209  VAL209      0.2287
     88  O        -16.2230   21.6240   39.1120 O.2   209  VAL209     -0.2864
     89  CB       -15.6080   25.0180   38.7310 C.3   209  VAL209      0.0276
     90  CG1      -14.7200   26.2270   39.1790 C.3   209  VAL209      0.0022
     91  CG2      -15.1260   24.5170   37.3640 C.3   209  VAL209      0.0022
@<TRIPOS>BOND
     1     1     2    1
     2     5     2    1
     3     5     6    1
     4     5     7    1
     5    38    39    1
     6    38    35    1
     7     2     3    1
     8    37    36    2
     9    41    40    2
    10    39    40    1
    11    40    42   am
    12    33    32    1
    13    36    35    1
    14    36    43   am
    15    35    34    1
    16     3     4    2
    17     3     8   am
    18    44    43    1
    19    44    45    1
    20    34    30   am
    21    32    29    1
    22     8     9    1
    23    30    29    1
    24    30    31    2
    25    45    46    2
    26    45    47   am
    27    29    28    1
    28    47    48    1
    29     9    10    1
    30     9    12    1
    31    11    10    2
    32    53    52   ar
    33    28    26   am
    34    54    52   ar
    35    13    12    1
    36    52    51    1
    37    27    26    2
    38    91    89    1
    39    48    51    1
    40    48    49    1
    41    26    25    1
    42    17    16    2
    43    55    49   am
    44    55    56    1
    45    21    23   ar
    46    21    19   ar
    47    49    50    2
    48    60    59    1
    49    23    22   ar
    50    59    56    1
    51    25    24    1
    52    89    90    1
    53    89    86    1
    54    16    15    1
    55    58    57    2
    56    88    87    2
    57    56    57    1
    58    87    86    1
    59    19    18    1
    60    19    20   ar
    61    86    85    1
    62    22    20   ar
    63    85    76   am
    64    18    15    1
    65    15    14    1
    66    71    70    2
    67    76    75    1
    68    76    77    2
    69    75    78    1
    70    75    74    1
    71    67    65    1
    72    78    79    1
    73    70    74   am
    74    70    69    1
    75    65    66    1
    76    65    62    1
    77    64    63    2
    78    79    81   ar
    79    79    80   ar
    80    81    83   ar
    81    63    68   am
    82    63    62    1
    83    69    68    1
    84    69    72    1
    85    62    61    1
    86    80    82   ar
    87    83    84   ar
    88    73    72    1
    89    82    84   ar
