@<TRIPOS>MOLECULE
tmp/2bdfA00.pdb
 154 145 0 0 0
SMALL
GASTEIGER

@<TRIPOS>ATOM
      1  N         13.7650   18.3850  -14.5550 N.3    17  LEU17      -0.1231
      2  CA        13.8030   17.0420  -13.9980 C.3    17  LEU17       0.1693
      3  C         12.8050   16.1600  -14.7060 C.2    17  LEU17       0.2593
      4  O         13.1060   15.0360  -15.0830 O.2    17  LEU17      -0.2718
      5  CB        13.4920   17.0890  -12.4970 C.3    17  LEU17       0.0284
      6  CG        14.4170   17.9680  -11.6540 C.3    17  LEU17       0.0019
      7  CD1       13.8350   18.1590  -10.2660 C.3    17  LEU17       0.0001
      8  CD2       15.7990   17.3600  -11.6090 C.3    17  LEU17       0.0001
      9  N         11.6100   16.6870  -14.8930 N.am   18  GLY18      -0.1942
     10  CA        10.5780   15.9200  -15.5450 C.3    18  GLY18       0.2014
     11  C          9.5390   16.8420  -16.1260 C.2    18  GLY18       0.2638
     12  O          9.6070   18.0680  -15.9600 O.2    18  GLY18      -0.2714
     13  N          8.5440   16.2400  -16.7630 N.am   19  GLN19      -0.1977
     14  CA         7.4770   16.9820  -17.4000 C.3    19  GLN19       0.1601
     15  C          6.2250   16.1160  -17.4400 C.2    19  GLN19       0.2287
     16  O          6.3080   14.8930  -17.6030 O.2    19  GLN19      -0.2864
     17  CB         7.9280   17.3690  -18.8140 C.3    19  GLN19       0.0394
     18  CG         6.8320   17.8050  -19.7550 C.3    19  GLN19       0.0908
     19  CD         6.9380   17.1060  -21.1070 C.2    19  GLN19       0.2608
     20  OE1        7.9270   16.4130  -21.3840 O.2    19  GLN19      -0.2717
     21  NE2        5.9100   17.2630  -21.9460 N.am   19  GLN19      -0.0878
     22  N          8.6280   19.8180  -13.8880 N.3    25  VAL25      -0.1245
     23  CA         9.3660   19.9080  -12.6380 C.3    25  VAL25       0.1561
     24  C         10.7890   20.3380  -12.9460 C.2    25  VAL25       0.2260
     25  O         11.4400   19.8030  -13.8490 O.2    25  VAL25      -0.2867
     26  CB         9.4130   18.5630  -11.8840 C.3    25  VAL25       0.0252
     27  CG1        9.9120   18.7860  -10.4720 C.3    25  VAL25       0.0019
     28  CG2        8.0540   17.9050  -11.8710 C.3    25  VAL25       0.0019
     29  N         13.1880   22.3170   -5.7090 N.3    37  ALA37      -0.1245
     30  CA        12.5150   21.6760   -6.8270 C.3    37  ALA37       0.1562
     31  C         11.3280   22.6200   -7.0900 C.2    37  ALA37       0.2260
     32  O         10.7330   23.1600   -6.1420 O.2    37  ALA37      -0.2867
     33  CB        12.0260   20.2910   -6.4350 C.3    37  ALA37       0.0290
     34  N          7.6500   23.0620   -9.2930 N.3    39  LYS39      -0.1245
     35  CA         6.6190   22.4750  -10.1450 C.3    39  LYS39       0.1561
     36  C          5.9420   23.6520  -10.8340 C.2    39  LYS39       0.2260
     37  O          5.4710   24.5810  -10.1660 O.2    39  LYS39      -0.2867
     38  CB         5.5990   21.6920   -9.3190 C.3    39  LYS39       0.0271
     39  CG         6.0730   20.3320   -8.9020 C.3    39  LYS39       0.0035
     40  CD         5.0080   19.6040   -8.1310 C.3    39  LYS39       0.0206
     41  CE         3.7720   19.4060   -8.9500 C.3    39  LYS39       0.1093
     42  NZ         2.9320   18.3500   -8.3390 N.3    39  LYS39      -0.1314
     43  N          7.3340   15.2100    1.5710 N.3    67  VAL67      -0.1245
     44  CA         8.0690   16.2560    0.8560 C.3    67  VAL67       0.1561
     45  C          7.5880   17.6090    1.3880 C.2    67  VAL67       0.2260
     46  O          6.3950   17.8890    1.4250 O.2    67  VAL67      -0.2867
     47  CB         7.8870   16.1360   -0.7000 C.3    67  VAL67       0.0252
     48  CG1        8.5930   17.2780   -1.4250 C.3    67  VAL67       0.0019
     49  CG2        8.4460   14.8090   -1.1840 C.3    67  VAL67       0.0019
     50  N          9.4070   23.2290   -3.5490 N.3    82  THR82      -0.1203
     51  CA         9.4830   22.2060   -2.5100 C.3    82  THR82       0.1994
     52  C         10.9310   21.7890   -2.2990 C.2    82  THR82       0.2618
     53  O         11.8320   22.2310   -3.0200 O.2    82  THR82      -0.2717
     54  CB         8.6620   20.9060   -2.8660 C.3    82  THR82       0.1784
     55  OG1        9.3270   20.1550   -3.8960 O.3    82  THR82      -0.2211
     56  CG2        7.2420   21.2500   -3.3030 C.3    82  THR82       0.0376
     57  N         11.1520   20.9610   -1.2820 N.am   83  GLU83      -0.1965
     58  CA        12.4820   20.4560   -1.0220 C.3    83  GLU83       0.1733
     59  C         12.8380   19.6050   -2.2180 C.2    83  GLU83       0.2616
     60  O         11.9590   19.0000   -2.8450 O.2    83  GLU83      -0.2715
     61  CB        12.5270   19.6240    0.2610 C.3    83  GLU83       0.0429
     62  CG        11.7760   18.3190    0.2340 C.3    83  GLU83       0.1163
     63  CD        12.0220   17.5120    1.4830 C.2    83  GLU83       0.3649
     64  OE1       13.1810   17.1570    1.7530 O.co2  83  GLU83      -0.2457
     65  OE2       11.0620   17.2320    2.2130 O.co2  83  GLU83      -0.2457
     66  N         14.1290   19.5490   -2.5220 N.am   84  TYR84      -0.1960
     67  CA        14.6210   18.7930   -3.6550 C.3    84  TYR84       0.1771
     68  C         14.9730   17.3720   -3.2480 C.2    84  TYR84       0.2619
     69  O         15.6700   17.1510   -2.2490 O.2    84  TYR84      -0.2715
     70  CB        15.8320   19.5170   -4.2520 C.3    84  TYR84       0.0574
     71  CG        16.4940   18.7760   -5.3810 C.ar   84  TYR84      -0.0198
     72  CD1       15.8430   18.6030   -6.6000 C.ar   84  TYR84      -0.0009
     73  CD2       17.7680   18.2120   -5.2180 C.ar   84  TYR84      -0.0009
     74  CE1       16.4400   17.8800   -7.6280 C.ar   84  TYR84       0.0417
     75  CE2       18.3880   17.4900   -6.2430 C.ar   84  TYR84       0.0417
     76  CZ        17.7160   17.3250   -7.4440 C.ar   84  TYR84       0.1957
     77  OH        18.3030   16.5990   -8.4510 O.3    84  TYR84      -0.2866
     78  N         14.4630   16.4020   -3.9970 N.am   85  MET85      -0.1963
     79  CA        14.7480   14.9900   -3.7240 C.3    85  MET85       0.1736
     80  C         15.6610   14.4870   -4.8500 C.2    85  MET85       0.2617
     81  O         15.2120   14.2510   -5.9730 O.2    85  MET85      -0.2715
     82  CB        13.4470   14.1690   -3.6460 C.3    85  MET85       0.0427
     83  CG        12.4750   14.6610   -2.5830 C.3    85  MET85       0.0599
     84  SD        13.1090   14.5400   -0.8890 S.3    85  MET85      -0.1393
     85  CE        13.2230   12.7840   -0.6620 C.3    85  MET85       0.0692
     86  N         16.9320   14.2940   -4.5110 N.am   86  SER86      -0.1936
     87  CA        17.9820   13.9030   -5.4500 C.3    86  SER86       0.2055
     88  C         17.9080   12.6280   -6.2720 C.2    86  SER86       0.2643
     89  O         18.6460   12.4990   -7.2450 O.2    86  SER86      -0.2714
     90  CB        19.3270   13.9480   -4.7330 C.3    86  SER86       0.2130
     91  OG        19.3200   13.0920   -3.5950 O.3    86  SER86      -0.2179
     92  N         17.0810   11.6640   -5.8920 N.am   87  LYS87      -0.1963
     93  CA        17.0220   10.4310   -6.6830 C.3    87  LYS87       0.1728
     94  C         15.7250   10.2750   -7.4960 C.2    87  LYS87       0.2617
     95  O         15.5370    9.2700   -8.1910 O.2    87  LYS87      -0.2715
     96  CB        17.2460    9.1990   -5.7900 C.3    87  LYS87       0.0311
     97  CG        18.4300    9.2980   -4.8190 C.3    87  LYS87       0.0038
     98  CD        19.7730    9.1390   -5.4880 C.3    87  LYS87       0.0206
     99  CE        20.8960    9.0530   -4.4390 C.3    87  LYS87       0.1093
    100  NZ        22.2500    8.6920   -4.9950 N.3    87  LYS87      -0.1314
    101  N         14.8540   11.2740   -7.4260 N.am   88  GLY88      -0.1940
    102  CA        13.6000   11.2210   -8.1520 C.3    88  GLY88       0.2014
    103  C         12.5920   10.2110   -7.6380 C.2    88  GLY88       0.2639
    104  O         12.6500    9.7780   -6.4970 O.2    88  GLY88      -0.2714
    105  N         11.6980    9.7940   -8.5270 N.am   89  SER89      -0.1949
    106  CA        10.6310    8.8390   -8.2300 C.3    89  SER89       0.1924
    107  C         11.0290    7.4280   -7.7630 C.2    89  SER89       0.2314
    108  O         11.9040    6.7860   -8.3290 O.2    89  SER89      -0.2863
    109  CB         9.7210    8.7590   -9.4560 C.3    89  SER89       0.2116
    110  OG         8.8380    7.6580   -9.4130 O.3    89  SER89      -0.2180
    111  N         10.6510    4.9500  -10.7890 N.3    92  ASP92      -0.1225
    112  CA        11.7580    4.9910  -11.7370 C.3    92  ASP92       0.1805
    113  C         12.9880    4.3290  -11.1290 C.2    92  ASP92       0.2597
    114  O         13.7340    3.6270  -11.8150 O.2    92  ASP92      -0.2718
    115  CB        12.0640    6.4390  -12.1060 C.3    92  ASP92       0.1424
    116  CG        10.9210    7.1010  -12.8500 C.2    92  ASP92       0.3668
    117  OD1       10.0560    6.3780  -13.3880 O.co2  92  ASP92      -0.2456
    118  OD2       10.8780    8.3460  -12.9000 O.co2  92  ASP92      -0.2456
    119  N         13.1450    4.5250   -9.8160 N.am   93  PHE93      -0.1976
    120  CA        14.2490    3.9760   -9.0270 C.3    93  PHE93       0.1639
    121  C         14.1590    2.4780   -8.9360 C.2    93  PHE93       0.2290
    122  O         15.1420    1.7790   -9.1020 O.2    93  PHE93      -0.2864
    123  CB        14.2320    4.5660   -7.6110 C.3    93  PHE93       0.0560
    124  CG        15.5410    4.4330   -6.8890 C.ar   93  PHE93      -0.0200
    125  CD1       16.5940    5.3270   -7.1640 C.ar   93  PHE93      -0.0042
    126  CD2       15.7500    3.3850   -5.9880 C.ar   93  PHE93      -0.0042
    127  CE1       17.8450    5.1770   -6.5620 C.ar   93  PHE93      -0.0003
    128  CE2       16.9990    3.2130   -5.3690 C.ar   93  PHE93      -0.0003
    129  CZ        18.0520    4.1120   -5.6600 C.ar   93  PHE93      -0.0000
    130  N         19.7870    1.2290  -11.1940 N.3    98  THR98      -0.1218
    131  CA        20.0120    1.5900   -9.8040 C.3    98  THR98       0.1862
    132  C         19.3800    0.5220   -8.9120 C.2    98  THR98       0.2287
    133  O         20.0720   -0.2740   -8.2930 O.2    98  THR98      -0.2866
    134  CB        19.2860    2.9150   -9.5090 C.3    98  THR98       0.1770
    135  OG1       18.0830    2.9760  -10.3110 O.3    98  THR98      -0.2211
    136  CG2       20.1730    4.1160   -9.8130 C.3    98  THR98       0.0375
    137  N          4.9600    5.7470   -7.7810 N.3   134  ALA134     -0.1245
    138  CA         5.1810    6.9110   -8.6360 C.3   134  ALA134      0.1562
    139  C          5.0660    8.1920   -7.8450 C.2   134  ALA134      0.2260
    140  O          5.5640    9.2340   -8.2630 O.2   134  ALA134     -0.2867
    141  CB         4.1820    6.9310   -9.7840 C.3   134  ALA134      0.0290
    142  N          9.0820    9.9450   -3.4710 N.3   137  LEU137     -0.1245
    143  CA        10.3530   10.4820   -3.9510 C.3   137  LEU137      0.1561
    144  C         11.5180    9.9200   -3.1030 C.2   137  LEU137      0.2260
    145  O         11.3920    9.7400   -1.8890 O.2   137  LEU137     -0.2867
    146  CB        10.3250   12.0170   -3.9330 C.3   137  LEU137      0.0270
    147  CG         9.4940   12.6810   -5.0250 C.3   137  LEU137      0.0019
    148  CD1        9.4340   14.1420   -4.7700 C.3   137  LEU137      0.0001
    149  CD2       10.0690   12.4080   -6.4150 C.3   137  LEU137      0.0001
    150  N          4.9120   12.1710   -1.6400 N.3   147  ALA147     -0.1245
    151  CA         4.6900   13.3990   -2.4180 C.3   147  ALA147      0.1562
    152  C          3.3020   13.4150   -3.0440 C.2   147  ALA147      0.2260
    153  O          2.4800   12.5430   -2.7620 O.2   147  ALA147     -0.2867
    154  CB         5.7790   13.5440   -3.5220 C.3   147  ALA147      0.0290
@<TRIPOS>BOND
     1    21    19   am
     2    20    19    2
     3    19    18    1
     4    18    17    1
     5    17    14    1
     6    16    15    2
     7    15    14    1
     8    14    13    1
     9    13    11   am
    10    11    12    2
    11    11    10    1
    12    10     9    1
    13     4     3    2
    14     9     3   am
    15     3     2    1
    16     1     2    1
    17     2     5    1
    18    22    23    1
    19    25    24    2
    20   117   116   ar
    21    24    23    1
    22   118   116   ar
    23   116   115    1
    24    23    26    1
    25     5     6    1
    26   115   112    1
    27    26    28    1
    28    26    27    1
    29   114   113    2
    30   112   113    1
    31   112   111    1
    32     6     8    1
    33     6     7    1
    34   130   131    1
    35   113   119   am
    36    36    37    2
    37    36    35    1
    38   135   134    1
    39    35    38    1
    40    35    34    1
    41   119   120    1
    42   136   134    1
    43   131   134    1
    44   131   132    1
    45   141   138    1
    46   109   110    1
    47   109   106    1
    48    38    39    1
    49   122   121    2
    50   120   121    1
    51   120   123    1
    52    41    42    1
    53    41    40    1
    54   132   133    2
    55    39    40    1
    56   138   139    1
    57   138   137    1
    58   105   106    1
    59   105   103   am
    60    77    76    1
    61   108   107    2
    62   140   139    2
    63   106   107    1
    64    95    94    2
    65   102   103    1
    66   102   101    1
    67   103   104    2
    68    74    76   ar
    69    74    72   ar
    70   123   124    1
    71    94   101   am
    72    94    93    1
    73    76    75   ar
    74    89    88    2
    75   125   124   ar
    76   125   127   ar
    77    31    30    1
    78    31    32    2
    79   124   126   ar
    80    30    33    1
    81    30    29    1
    82    93    92    1
    83    93    96    1
    84    72    71   ar
    85   127   129   ar
    86   149   147    1
    87    88    92   am
    88    88    87    1
    89    75    73   ar
    90   126   128   ar
    91    81    80    2
    92    96    97    1
    93   129   128   ar
    94    98    97    1
    95    98    99    1
    96    87    90    1
    97    87    86    1
    98    71    73   ar
    99    71    70    1
   100   147   148    1
   101   147   146    1
   102   100    99    1
   103    80    86   am
   104    80    79    1
   105    90    91    1
   106    70    67    1
   107    78    79    1
   108    78    68   am
   109   143   146    1
   110   143   142    1
   111   143   144    1
   112    55    54    1
   113    79    82    1
   114    67    68    1
   115    67    66    1
   116    82    83    1
   117    50    51    1
   118   154   151    1
   119    56    54    1
   120    68    69    2
   121   144   145    2
   122   152   153    2
   123   152   151    1
   124    53    52    2
   125    54    51    1
   126    60    59    2
   127    83    84    1
   128    66    59   am
   129    51    52    1
   130   151   150    1
   131    52    57   am
   132    59    58    1
   133    48    47    1
   134    57    58    1
   135    49    47    1
   136    58    61    1
   137    84    85    1
   138    47    44    1
   139    62    61    1
   140    62    63    1
   141    44    45    1
   142    44    43    1
   143    45    46    2
   144    63    64   ar
   145    63    65   ar
