@<TRIPOS>MOLECULE
tmp/2bdgA00.pdb
 107 104 0 0 0
SMALL
GASTEIGER

@<TRIPOS>ATOM
      1  N         23.1000   49.3450    1.8470 N.3    41  HIS41      -0.1241
      2  CA        23.7700   50.1870    0.8550 C.3    41  HIS41       0.1621
      3  C         23.2190   49.9520   -0.5620 C.2    41  HIS41       0.2264
      4  O         23.6620   50.5740   -1.5210 O.2    41  HIS41      -0.2867
      5  CB        25.3180   50.0260    0.8980 C.3    41  HIS41       0.0745
      6  CG        25.8410   48.7550    0.3070 C.ar   41  HIS41       0.0817
      7  ND1       26.1460   47.6470    1.0710 N.ar   41  HIS41      -0.2268
      8  CD2       26.1670   48.4300   -0.9670 C.ar   41  HIS41       0.1154
      9  CE1       26.6440   46.6980    0.2960 C.ar   41  HIS41       0.1986
     10  NE2       26.6680   47.1480   -0.9490 N.ar   41  HIS41      -0.2212
     11  N         35.7750   34.1570   -2.9310 N.3   171  ASP171     -0.1225
     12  CA        35.2490   35.3400   -2.2430 C.3   171  ASP171      0.1805
     13  C         34.0480   35.8640   -3.0390 C.2   171  ASP171      0.2598
     14  O         33.7690   35.3700   -4.1440 O.2   171  ASP171     -0.2718
     15  CB        36.3760   36.4030   -2.2040 C.3   171  ASP171      0.1424
     16  CG        36.0460   37.6370   -1.3290 C.2   171  ASP171      0.3668
     17  OD1       34.9820   37.7040   -0.6900 O.co2 171  ASP171     -0.2456
     18  OD2       36.8800   38.5710   -1.2860 O.co2 171  ASP171     -0.2456
     19  N         33.3120   36.8170   -2.4760 N.am  172  SER172     -0.1938
     20  CA        32.2400   37.4420   -3.2420 C.3   172  SER172      0.2055
     21  C         32.9310   38.7290   -3.7370 C.2   172  SER172      0.2643
     22  O         34.1070   38.9560   -3.4210 O.2   172  SER172     -0.2714
     23  CB        30.9940   37.7190   -2.3720 C.3   172  SER172      0.2130
     24  OG        31.3160   38.3410   -1.1470 O.3   172  SER172     -0.2179
     25  N         32.2440   39.5710   -4.5050 N.am  173  CYS173     -0.1953
     26  CA        32.8900   40.7700   -5.0330 C.3   173  CYS173      0.1843
     27  C         31.8550   41.8130   -5.4760 C.2   173  CYS173      0.2625
     28  O         30.6530   41.6410   -5.2700 O.2   173  CYS173     -0.2714
     29  CB        33.7710   40.3390   -6.2100 C.3   173  CYS173      0.0997
     30  SG        35.1270   41.4300   -6.7450 S.3   173  CYS173     -0.0797
     31  N         32.3270   42.8960   -6.0820 N.am  174  ASN174     -0.1958
     32  CA        31.4440   43.9630   -6.5390 C.3   174  ASN174      0.1819
     33  C         30.3190   43.3730   -7.3650 C.2   174  ASN174      0.2621
     34  O         30.5680   42.5500   -8.2610 O.2   174  ASN174     -0.2715
     35  CB        32.2280   44.9820   -7.3610 C.3   174  ASN174      0.1195
     36  CG        33.2710   45.6810   -6.5430 C.2   174  ASN174      0.2630
     37  OD1       34.2420   45.0590   -6.0930 O.2   174  ASN174     -0.2716
     38  ND2       33.0790   46.9760   -6.3160 N.am  174  ASN174     -0.0877
     39  N         29.0910   43.7810   -7.0430 N.am  175  GLY175     -0.1954
     40  CA        27.9240   43.2740   -7.7350 C.3   175  GLY175      0.1869
     41  C         27.2490   42.1660   -6.9360 C.2   175  GLY175      0.2309
     42  O         26.0960   41.8220   -7.2060 O.2   175  GLY175     -0.2863
     43  N         26.8030   42.3960   -3.7000 N.3   177  SER177     -0.1217
     44  CA        26.2060   43.0790   -2.5530 C.3   177  SER177      0.1889
     45  C         24.7640   42.6550   -2.3100 C.2   177  SER177      0.2288
     46  O         23.9860   42.5240   -3.2640 O.2   177  SER177     -0.2866
     47  CB        26.2300   44.6090   -2.7440 C.3   177  SER177      0.2089
     48  OG        27.5440   45.1320   -2.6890 O.3   177  SER177     -0.2183
     49  N         25.9960   39.5790    1.6280 N.3   191  VAL191     -0.1231
     50  CA        27.2780   40.0750    1.1430 C.3   191  VAL191      0.1692
     51  C         27.3160   41.5570    1.4800 C.2   191  VAL191      0.2593
     52  O         26.4680   42.3090    1.0260 O.2   191  VAL191     -0.2718
     53  CB        27.4220   39.8860   -0.3880 C.3   191  VAL191      0.0266
     54  CG1       28.6330   40.6400   -0.9060 C.3   191  VAL191      0.0020
     55  CG2       27.5470   38.4320   -0.7160 C.3   191  VAL191      0.0020
     56  N         28.3080   41.9840    2.2640 N.am  192  SER192     -0.1938
     57  CA        28.3820   43.3850    2.6510 C.3   192  SER192      0.2055
     58  C         29.5610   44.1460    2.0630 C.2   192  SER192      0.2643
     59  O         29.3620   45.1100    1.3390 O.2   192  SER192     -0.2714
     60  CB        28.3920   43.5070    4.1740 C.3   192  SER192      0.2130
     61  OG        28.2930   44.8710    4.5650 O.3   192  SER192     -0.2179
     62  N         30.7850   43.7550    2.3930 N.am  193  PHE193     -0.1959
     63  CA        31.9520   44.4370    1.8390 C.3   193  PHE193      0.1771
     64  C         33.2120   43.6040    2.0160 C.2   193  PHE193      0.2620
     65  O         33.1740   42.5000    2.5790 O.2   193  PHE193     -0.2715
     66  CB        32.1230   45.8450    2.4570 C.3   193  PHE193      0.0574
     67  CG        32.6290   45.8570    3.8830 C.ar  193  PHE193     -0.0200
     68  CD1       33.9980   45.9130    4.1550 C.ar  193  PHE193     -0.0042
     69  CD2       31.7370   45.8100    4.9550 C.ar  193  PHE193     -0.0042
     70  CE1       34.4730   45.9130    5.4740 C.ar  193  PHE193     -0.0003
     71  CE2       32.2040   45.8100    6.2840 C.ar  193  PHE193     -0.0003
     72  CZ        33.5690   45.8590    6.5380 C.ar  193  PHE193     -0.0000
     73  N         34.3150   44.1080    1.4800 N.am  194  GLY194     -0.1940
     74  CA        35.5760   43.4090    1.5890 C.3   194  GLY194      0.2014
     75  C         36.6460   44.3500    1.1000 C.2   194  GLY194      0.2639
     76  O         36.4790   45.5780    1.1840 O.2   194  GLY194     -0.2714
     77  N         37.7400   43.8060    0.5800 N.am  195  LYS195     -0.1963
     78  CA        38.8080   44.6620    0.0740 C.3   195  LYS195      0.1728
     79  C         39.0550   44.3670   -1.3870 C.2   195  LYS195      0.2616
     80  O         38.7210   43.2880   -1.8770 O.2   195  LYS195     -0.2715
     81  CB        40.0880   44.4820    0.9100 C.3   195  LYS195      0.0311
     82  CG        39.9490   45.0560    2.3230 C.3   195  LYS195      0.0038
     83  CD        41.2060   44.9080    3.1720 C.3   195  LYS195      0.0206
     84  CE        41.0360   45.6190    4.5210 C.3   195  LYS195      0.1093
     85  NZ        42.1180   45.3360    5.5140 N.3   195  LYS195     -0.1314
     86  N         39.5900   45.3470   -2.1010 N.am  196  ALA196     -0.1977
     87  CA        39.8860   45.1590   -3.5140 C.3   196  ALA196      0.1597
     88  C         41.4050   45.1270   -3.6790 C.2   196  ALA196      0.2287
     89  O         42.1180   45.8920   -3.0370 O.2   196  ALA196     -0.2864
     90  CB        39.2820   46.2870   -4.3350 C.3   196  ALA196      0.0319
     91  N         39.4070   41.5940   -4.9410 N.3   198  CYS198     -0.1235
     92  CA        38.6310   40.5960   -4.2180 C.3   198  CYS198      0.1677
     93  C         39.4310   39.3030   -4.1700 C.2   198  CYS198      0.2270
     94  O         40.2760   39.0670   -5.0350 O.2   198  CYS198     -0.2867
     95  CB        37.2950   40.3400   -4.9430 C.3   198  CYS198      0.0956
     96  SG        36.1960   41.8040   -5.0350 S.3   198  CYS198     -0.0801
     97  N         35.9550   38.1440    3.0600 N.3   205  GLY205     -0.1210
     98  CA        34.9240   39.1340    2.8210 C.3   205  GLY205      0.1956
     99  C         34.1230   39.2940    4.1060 C.2   205  GLY205      0.2611
    100  O         34.1540   38.4260    4.9800 O.2   205  GLY205     -0.2717
    101  N         33.4090   40.4050    4.2180 N.am  206  VAL206     -0.1979
    102  CA        32.6030   40.7130    5.3780 C.3   206  VAL206      0.1595
    103  C         31.1290   40.6250    5.0090 C.2   206  VAL206      0.2287
    104  O         30.7090   41.0870    3.9400 O.2   206  VAL206     -0.2864
    105  CB        32.9530   42.1010    5.9040 C.3   206  VAL206      0.0276
    106  CG1       32.1300   42.4280    7.1620 C.3   206  VAL206      0.0022
    107  CG2       34.4660   42.1380    6.1930 C.3   206  VAL206      0.0022
@<TRIPOS>BOND
     1    34    33    2
     2    40    39    1
     3    40    41    1
     4    33    39   am
     5    33    32    1
     6    35    36    1
     7    35    32    1
     8    42    41    2
     9    30    29    1
    10    30    96    1
    11    36    38   am
    12    36    37    2
    13    32    31    1
    14    29    26    1
    15    31    27   am
    16    27    28    2
    17    27    26    1
    18    94    93    2
    19    96    95    1
    20    26    25    1
    21    95    92    1
    22    91    92    1
    23    25    21   am
    24    90    87    1
    25    92    93    1
    26    14    13    2
    27    21    22    2
    28    21    20    1
    29    43    44    1
    30    88    87    1
    31    88    89    2
    32    87    86    1
    33    46    45    2
    34    20    19    1
    35    20    23    1
    36    13    19   am
    37    13    12    1
    38    11    12    1
    39    47    48    1
    40    47    44    1
    41    44    45    1
    42    23    24    1
    43    12    15    1
    44    15    16    1
    45    86    79   am
    46    80    79    2
    47     4     3    2
    48    79    78    1
    49    16    18   ar
    50    16    17   ar
    51     8    10   ar
    52     8     6   ar
    53    10     9   ar
    54    54    53    1
    55    55    53    1
    56     3     2    1
    57    53    50    1
    58    78    77    1
    59    78    81    1
    60     9     7   ar
    61     6     5    1
    62     6     7   ar
    63    77    75   am
    64     2     5    1
    65     2     1    1
    66    81    82    1
    67    52    51    2
    68    75    76    2
    69    75    74    1
    70    50    51    1
    71    50    49    1
    72    59    58    2
    73    73    74    1
    74    73    64   am
    75    51    56   am
    76    63    64    1
    77    63    62    1
    78    63    66    1
    79    64    65    2
    80    58    62   am
    81    58    57    1
    82    56    57    1
    83    82    83    1
    84    66    67    1
    85    57    60    1
    86    98    97    1
    87    98    99    1
    88    83    84    1
    89    67    68   ar
    90    67    69   ar
    91   104   103    2
    92    99   101   am
    93    99   100    2
    94    68    70   ar
    95    60    61    1
    96   101   102    1
    97    84    85    1
    98    69    71   ar
    99   103   102    1
   100   102   105    1
   101    70    72   ar
   102   105   107    1
   103   105   106    1
   104    71    72   ar
