@<TRIPOS>MOLECULE
tmp/2bdjA00.pdb
 188 176 0 0 0
SMALL
GASTEIGER

@<TRIPOS>ATOM
      1  N         19.5150   10.5840   28.6850 N.3    17  LEU17      -0.1231
      2  CA        19.6460   10.3050   27.2530 C.3    17  LEU17       0.1693
      3  C         18.5990   11.0400   26.4340 C.2    17  LEU17       0.2593
      4  O         18.8560   11.4690   25.3140 O.2    17  LEU17      -0.2718
      5  CB        19.5030    8.8050   27.0080 C.3    17  LEU17       0.0284
      6  CG        20.5190    7.9150   27.7090 C.3    17  LEU17       0.0019
      7  CD1       20.0130    6.4900   27.7690 C.3    17  LEU17       0.0001
      8  CD2       21.8360    8.0050   26.9880 C.3    17  LEU17       0.0001
      9  N         17.4030   11.1310   26.9950 N.am   18  GLY18      -0.1942
     10  CA        16.3020   11.7880   26.3280 C.3    18  GLY18       0.2014
     11  C         15.1270   11.9170   27.2830 C.2    18  GLY18       0.2638
     12  O         15.2680   11.7380   28.5000 O.2    18  GLY18      -0.2714
     13  N         13.9400   12.1300   26.7340 N.am   19  GLN19      -0.1977
     14  CA        12.7730   12.3160   27.5730 C.3    19  GLN19       0.1601
     15  C         11.4750   12.3000   26.7790 C.2    19  GLN19       0.2287
     16  O         11.4040   12.8570   25.6800 O.2    19  GLN19      -0.2864
     17  CB        12.9160   13.6550   28.3050 C.3    19  GLN19       0.0394
     18  CG        11.6760   14.1550   29.0230 C.3    19  GLN19       0.0908
     19  CD        11.9410   15.4170   29.8280 C.2    19  GLN19       0.2608
     20  OE1       13.0820   15.7100   30.1940 O.2    19  GLN19      -0.2717
     21  NE2       10.8840   16.1620   30.1210 N.am   19  GLN19      -0.0878
     22  N         14.2840    9.2940   30.2130 N.3    25  VAL25      -0.1245
     23  CA        15.1710    8.1340   30.0280 C.3    25  VAL25       0.1561
     24  C         16.5980    8.4970   30.4320 C.2    25  VAL25       0.2260
     25  O         17.2040    9.4170   29.8590 O.2    25  VAL25      -0.2867
     26  CB        15.1660    7.5740   28.5660 C.3    25  VAL25       0.0252
     27  CG1       16.3360    6.6000   28.3520 C.3    25  VAL25       0.0019
     28  CG2       13.8770    6.8240   28.3050 C.3    25  VAL25       0.0019
     29  N         20.6900    7.0490   31.6470 N.3    27  MET27      -0.1245
     30  CA        21.6700    5.9830   31.5510 C.3    27  MET27       0.1570
     31  C         22.1410    5.8820   32.9960 C.2    27  MET27       0.2261
     32  O         22.2050    6.9010   33.6960 O.2    27  MET27      -0.2867
     33  CB        22.8520    6.3830   30.6720 C.3    27  MET27       0.0387
     34  CG        23.8700    5.2570   30.5190 C.3    27  MET27       0.0595
     35  SD        25.5370    5.7420   30.0030 S.3    27  MET27      -0.1393
     36  CE        25.2140    7.2480   29.0070 C.3    27  MET27       0.0692
     37  N         19.6020    1.3430   31.4080 N.3    37  ALA37      -0.1245
     38  CA        18.8320    2.4890   30.9540 C.3    37  ALA37       0.1562
     39  C         17.5590    2.4270   31.7910 C.2    37  ALA37       0.2260
     40  O         16.9800    1.3520   31.9660 O.2    37  ALA37      -0.2867
     41  CB        18.5180    2.3690   29.4870 C.3    37  ALA37       0.0290
     42  N         13.7080    4.2130   32.7130 N.3    39  LYS39      -0.1245
     43  CA        12.6270    5.0820   32.2760 C.3    39  LYS39       0.1561
     44  C         11.8510    5.3870   33.5480 C.2    39  LYS39       0.2260
     45  O         11.3630    4.4670   34.2220 O.2    39  LYS39      -0.2867
     46  CB        11.7380    4.3710   31.2480 C.3    39  LYS39       0.0271
     47  CG        10.8620    5.3180   30.4410 C.3    39  LYS39       0.0035
     48  CD        10.5480    4.7650   29.0560 C.3    39  LYS39       0.0206
     49  CE         9.2610    3.9620   29.0340 C.3    39  LYS39       0.1093
     50  NZ         9.0050    3.4370   27.6700 N.3    39  LYS39      -0.1314
     51  N          3.4500   -1.3370   30.7930 N.3    54  GLU54      -0.1245
     52  CA         4.5120   -1.5670   29.8270 C.3    54  GLU54       0.1567
     53  C          5.5060   -2.6210   30.3030 C.2    54  GLU54       0.2260
     54  O          5.8900   -3.5180   29.5490 O.2    54  GLU54      -0.2867
     55  CB         5.2470   -0.2650   29.5330 C.3    54  GLU54       0.0388
     56  CG         6.3880   -0.4440   28.5570 C.3    54  GLU54       0.1160
     57  CD         7.2330    0.7930   28.3990 C.2    54  GLU54       0.3649
     58  OE1        6.9900    1.7980   29.1120 O.co2  54  GLU54      -0.2457
     59  OE2        8.1500    0.7480   27.5550 O.co2  54  GLU54      -0.2457
     60  N          6.6670   -6.5640   29.1140 N.3    58  MET58      -0.1245
     61  CA         8.0540   -6.9750   28.9700 C.3    58  MET58       0.1570
     62  C          8.4240   -8.1400   29.8620 C.2    58  MET58       0.2261
     63  O          9.3940   -8.8350   29.5920 O.2    58  MET58      -0.2867
     64  CB         8.9880   -5.8010   29.2010 C.3    58  MET58       0.0387
     65  CG         8.7540   -4.6600   28.2360 C.3    58  MET58       0.0595
     66  SD         9.8690   -3.2610   28.4890 S.3    58  MET58      -0.1393
     67  CE        10.0980   -3.3190   30.2600 C.3    58  MET58       0.0692
     68  N         14.1200   -4.8880   23.3730 N.3    67  VAL67      -0.1245
     69  CA        14.9070   -4.4000   24.5000 C.3    67  VAL67       0.1561
     70  C         14.5830   -5.3160   25.6710 C.2    67  VAL67       0.2260
     71  O         13.4580   -5.8050   25.7980 O.2    67  VAL67      -0.2867
     72  CB        14.5950   -2.9190   24.8280 C.3    67  VAL67       0.0252
     73  CG1       15.3690   -2.4700   26.0590 C.3    67  VAL67       0.0019
     74  CG2       14.9860   -2.0430   23.6490 C.3    67  VAL67       0.0019
     75  N         11.8750    1.9630   35.3870 N.3    80  ILE80      -0.1245
     76  CA        11.8190    0.7600   34.5770 C.3    80  ILE80       0.1561
     77  C         13.2520    0.5980   34.0630 C.2    80  ILE80       0.2260
     78  O         13.7890    1.4870   33.3870 O.2    80  ILE80      -0.2867
     79  CB        10.7670    0.8440   33.4330 C.3    80  ILE80       0.0252
     80  CG1        9.3510    0.9160   34.0220 C.3    80  ILE80       0.0019
     81  CG2       10.8540   -0.3930   32.5410 C.3    80  ILE80       0.0019
     82  CD1        8.2170    0.8080   32.9880 C.3    80  ILE80       0.0001
     83  N         16.1570   -1.4830   31.9810 N.3    82  THR82      -0.1203
     84  CA        16.3770   -2.3820   30.8570 C.3    82  THR82       0.1994
     85  C         17.8340   -2.3480   30.4460 C.2    82  THR82       0.2618
     86  O         18.6400   -1.5820   30.9950 O.2    82  THR82      -0.2717
     87  CB        15.5570   -1.9730   29.5940 C.3    82  THR82       0.1784
     88  OG1       16.1300   -0.8050   28.9890 O.3    82  THR82      -0.2211
     89  CG2       14.1200   -1.6830   29.9460 C.3    82  THR82       0.0376
     90  N         18.1630   -3.1680   29.4530 N.am   83  GLU83      -0.1965
     91  CA        19.5130   -3.1960   28.9220 C.3    83  GLU83       0.1733
     92  C         19.7910   -1.8180   28.3470 C.2    83  GLU83       0.2616
     93  O         18.8810   -0.9930   28.2100 O.2    83  GLU83      -0.2715
     94  CB        19.6490   -4.2560   27.8320 C.3    83  GLU83       0.0429
     95  CG        18.7290   -4.0720   26.6430 C.3    83  GLU83       0.1163
     96  CD        18.9480   -5.1390   25.5970 C.2    83  GLU83       0.3649
     97  OE1       20.0430   -5.1660   25.0030 O.co2  83  GLU83      -0.2457
     98  OE2       18.0380   -5.9620   25.3740 O.co2  83  GLU83      -0.2457
     99  N         21.0350   -1.5770   27.9760 N.am   84  TYR84      -0.1960
    100  CA        21.4130   -0.2850   27.4440 C.3    84  TYR84       0.1771
    101  C         21.7860   -0.4330   25.9710 C.2    84  TYR84       0.2619
    102  O         22.5200   -1.3500   25.5910 O.2    84  TYR84      -0.2715
    103  CB        22.5780    0.2910   28.2780 C.3    84  TYR84       0.0574
    104  CG        23.1160    1.6180   27.7860 C.ar   84  TYR84      -0.0198
    105  CD1       22.4690    2.8140   28.0960 C.ar   84  TYR84      -0.0009
    106  CD2       24.2500    1.6720   26.9710 C.ar   84  TYR84      -0.0009
    107  CE1       22.9340    4.0360   27.6010 C.ar   84  TYR84       0.0417
    108  CE2       24.7270    2.8880   26.4710 C.ar   84  TYR84       0.0417
    109  CZ        24.0620    4.0660   26.7920 C.ar   84  TYR84       0.1957
    110  OH        24.5290    5.2690   26.3100 O.3    84  TYR84      -0.2866
    111  N         21.2280    0.4390   25.1370 N.am   85  MET85      -0.1963
    112  CA        21.5150    0.4280   23.7090 C.3    85  MET85       0.1736
    113  C         22.4400    1.6150   23.4680 C.2    85  MET85       0.2617
    114  O         22.0360    2.7660   23.6110 O.2    85  MET85      -0.2715
    115  CB        20.2230    0.5630   22.9020 C.3    85  MET85       0.0427
    116  CG        19.2360   -0.5720   23.1180 C.3    85  MET85       0.0599
    117  SD        19.9480   -2.1660   22.7370 S.3    85  MET85      -0.1393
    118  CE        19.9460   -2.1600   20.9400 C.3    85  MET85       0.0692
    119  N         23.6790    1.3170   23.0980 N.am   86  SER86      -0.1936
    120  CA        24.7200    2.3150   22.8830 C.3    86  SER86       0.2055
    121  C         24.5270    3.4450   21.8730 C.2    86  SER86       0.2643
    122  O         25.2350    4.4650   21.9470 O.2    86  SER86      -0.2714
    123  CB        26.0300    1.6020   22.5730 C.3    86  SER86       0.2130
    124  OG        25.8620    0.6890   21.5040 O.3    86  SER86      -0.2179
    125  N         23.5980    3.2850   20.9330 N.am   87  LYS87      -0.1963
    126  CA        23.4070    4.3160   19.9200 C.3    87  LYS87       0.1728
    127  C         22.0730    5.0470   19.8950 C.2    87  LYS87       0.2617
    128  O         21.9130    6.0210   19.1610 O.2    87  LYS87      -0.2715
    129  CB        23.8080    3.7770   18.5440 C.3    87  LYS87       0.0311
    130  CG        25.3050    3.4430   18.4880 C.3    87  LYS87       0.0038
    131  CD        25.6480    2.3990   17.4480 C.3    87  LYS87       0.0206
    132  CE        27.1030    1.9560   17.5760 C.3    87  LYS87       0.1093
    133  NZ        28.0820    3.0720   17.4130 N.3    87  LYS87      -0.1314
    134  N         21.1500    4.6330   20.7560 N.am   88  GLY88      -0.1940
    135  CA        19.8610    5.2980   20.8330 C.3    88  GLY88       0.2014
    136  C         18.8590    4.9360   19.7660 C.2    88  GLY88       0.2639
    137  O         18.9630    3.8770   19.1430 O.2    88  GLY88      -0.2714
    138  N         17.8750    5.8090   19.5660 N.am   89  SER89      -0.1949
    139  CA        16.8440    5.5660   18.5670 C.3    89  SER89       0.1924
    140  C         17.4260    5.5000   17.1670 C.2    89  SER89       0.2314
    141  O         18.3270    6.2630   16.8110 O.2    89  SER89      -0.2863
    142  CB        15.7690    6.6480   18.6020 C.3    89  SER89       0.2116
    143  OG        16.2370    7.8430   18.0010 O.3    89  SER89      -0.2180
    144  N         17.1660    8.9770   15.0350 N.3    92  ASP92      -0.1239
    145  CA        18.2670    9.9250   15.2020 C.3    92  ASP92       0.1674
    146  C         19.5240    9.4120   14.5070 C.2    92  ASP92       0.2266
    147  O         20.1710   10.1270   13.7430 O.2    92  ASP92      -0.2867
    148  CB        18.5530   10.1500   16.6870 C.3    92  ASP92       0.1410
    149  CG        17.4500   10.9250   17.3920 C.2    92  ASP92       0.3668
    150  OD1       16.7940   11.7710   16.7450 O.co2  92  ASP92      -0.2456
    151  OD2       17.2440   10.6910   18.6020 O.co2  92  ASP92      -0.2456
    152  N         11.4630    5.8060   15.4450 N.3   134  ALA134     -0.1245
    153  CA        11.7450    6.4260   16.7340 C.3   134  ALA134      0.1562
    154  C         11.7120    5.4180   17.8820 C.2   134  ALA134      0.2260
    155  O         12.3110    5.6460   18.9290 O.2   134  ALA134     -0.2867
    156  CB        10.7560    7.5500   16.9980 C.3   134  ALA134      0.0290
    157  N         15.8460    0.8680   18.8990 N.3   137  LEU137     -0.1245
    158  CA        17.1070    1.2290   19.5250 C.3   137  LEU137      0.1561
    159  C         18.2660    0.4730   18.9000 C.2   137  LEU137      0.2260
    160  O         18.1900   -0.7420   18.6960 O.2   137  LEU137     -0.2867
    161  CB        17.0420    0.9480   21.0230 C.3   137  LEU137      0.0270
    162  CG        16.0430    1.8350   21.7530 C.3   137  LEU137      0.0019
    163  CD1       15.7770    1.2910   23.1410 C.3   137  LEU137      0.0001
    164  CD2       16.5730    3.2530   21.7880 C.3   137  LEU137      0.0001
    165  N         11.6150   -1.1710   21.0790 N.3   147  ALA147     -0.1231
    166  CA        11.2360   -0.6370   22.3910 C.3   147  ALA147      0.1694
    167  C          9.8040   -0.0950   22.4030 C.2   147  ALA147      0.2592
    168  O          9.0740   -0.2210   21.4260 O.2   147  ALA147     -0.2718
    169  CB        12.2040    0.4500   22.8080 C.3   147  ALA147      0.0304
    170  N          9.3940    0.4650   23.5330 N.am  148  ASP148     -0.1960
    171  CA         8.0640    1.0520   23.6920 C.3   148  ASP148      0.1840
    172  C          6.8420    0.1710   23.5750 C.2   148  ASP148      0.2622
    173  O          6.0990    0.2290   22.6010 O.2   148  ASP148     -0.2715
    174  CB         7.9140    2.2660   22.7960 C.3   148  ASP148      0.1450
    175  CG         8.7830    3.3970   23.2490 C.2   148  ASP148      0.3671
    176  OD1        8.3110    4.1900   24.0880 O.co2 148  ASP148     -0.2456
    177  OD2        9.9510    3.4580   22.8100 O.co2 148  ASP148     -0.2456
    178  N          6.5930   -0.5800   24.6340 N.am  149  PHE149     -0.1974
    179  CA         5.4490   -1.4660   24.6900 C.3   149  PHE149      0.1639
    180  C          4.3790   -0.8190   25.5510 C.2   149  PHE149      0.2290
    181  O          3.6220   -1.5030   26.2370 O.2   149  PHE149     -0.2864
    182  CB         5.8830   -2.8150   25.2600 C.3   149  PHE149      0.0560
    183  CG         7.0040   -3.4450   24.4890 C.ar  149  PHE149     -0.0200
    184  CD1        6.7370   -4.2330   23.3690 C.ar  149  PHE149     -0.0042
    185  CD2        8.3330   -3.2140   24.8490 C.ar  149  PHE149     -0.0042
    186  CE1        7.7810   -4.7840   22.6140 C.ar  149  PHE149     -0.0003
    187  CE2        9.3880   -3.7560   24.1070 C.ar  149  PHE149     -0.0003
    188  CZ         9.1140   -4.5420   22.9860 C.ar  149  PHE149     -0.0000
@<TRIPOS>BOND
     1   147   146    2
     2   146   145    1
     3   144   145    1
     4   145   148    1
     5   152   153    1
     6   148   149    1
     7   153   156    1
     8   153   154    1
     9   150   149   ar
    10   141   140    2
    11   140   139    1
    12   149   151   ar
    13   133   132    1
    14   131   132    1
    15   131   130    1
    16   154   155    2
    17   143   142    1
    18   130   129    1
    19   129   126    1
    20   139   142    1
    21   139   138    1
    22   160   159    2
    23   157   158    1
    24   159   158    1
    25   137   136    2
    26   128   127    2
    27   158   161    1
    28   138   136   am
    29   136   135    1
    30   127   126    1
    31   127   134   am
    32   126   125    1
    33   134   135    1
    34   125   121   am
    35   118   117    1
    36   161   162    1
    37   165   166    1
    38   168   167    2
    39   124   123    1
    40   162   164    1
    41   162   163    1
    42   121   122    2
    43   121   120    1
    44   166   167    1
    45   166   169    1
    46   167   170   am
    47   123   120    1
    48   173   172    2
    49   186   188   ar
    50   186   184   ar
    51   117   116    1
    52   174   175    1
    53   174   171    1
    54   177   175   ar
    55   120   119    1
    56   115   116    1
    57   115   112    1
    58   188   187   ar
    59   119   113   am
    60   175   176   ar
    61   184   183   ar
    62    68    69    1
    63   113   114    2
    64   113   112    1
    65   170   171    1
    66   172   171    1
    67   172   178   am
    68    74    72    1
    69   112   111    1
    70   187   185   ar
    71   183   185   ar
    72   183   182    1
    73    69    72    1
    74    69    70    1
    75   178   179    1
    76   179   182    1
    77   179   180    1
    78    72    73    1
    79    97    96   ar
    80   111   101   am
    81     4     3    2
    82    98    96   ar
    83   180   181    2
    84   102   101    2
    85    96    95    1
    86    70    71    2
    87    16    15    2
    88   101   100    1
    89   110   109    1
    90    10     9    1
    91    10    11    1
    92     3     9   am
    93     3     2    1
    94   108   109   ar
    95   108   106   ar
    96    95    94    1
    97    13    11   am
    98    13    14    1
    99    15    14    1
   100   109   107   ar
   101   106   104   ar
   102     8     6    1
   103     5     2    1
   104     5     6    1
   105     2     1    1
   106    11    12    2
   107   100    99    1
   108   100   103    1
   109    59    57   ar
   110    14    17    1
   111   107   105   ar
   112    50    49    1
   113     6     7    1
   114   104   105   ar
   115   104   103    1
   116    94    91    1
   117    99    92   am
   118    93    92    2
   119    65    66    1
   120    65    64    1
   121    28    26    1
   122    17    18    1
   123    92    91    1
   124    27    26    1
   125    57    56    1
   126    57    58   ar
   127    66    67    1
   128    56    55    1
   129    26    23    1
   130    91    90    1
   131    61    60    1
   132    61    64    1
   133    61    62    1
   134    88    87    1
   135    36    35    1
   136    18    19    1
   137    49    48    1
   138    48    47    1
   139    90    85   am
   140    41    38    1
   141    55    52    1
   142    54    53    2
   143    63    62    2
   144    87    89    1
   145    87    84    1
   146    52    53    1
   147    52    51    1
   148    19    21   am
   149    19    20    2
   150    25    24    2
   151    35    34    1
   152    23    22    1
   153    23    24    1
   154    47    46    1
   155    85    84    1
   156    85    86    2
   157    34    33    1
   158    33    30    1
   159    84    83    1
   160    38    37    1
   161    38    39    1
   162    46    43    1
   163    30    29    1
   164    30    31    1
   165    39    40    2
   166    43    42    1
   167    43    44    1
   168    81    79    1
   169    82    80    1
   170    31    32    2
   171    78    77    2
   172    79    80    1
   173    79    76    1
   174    44    45    2
   175    77    76    1
   176    76    75    1
