@<TRIPOS>MOLECULE
tmp/2bdlA00.pdb
 148 148 0 0 0
SMALL
GASTEIGER

@<TRIPOS>ATOM
      1  N         82.7510   87.3560  170.5710 N.3    19  GLN19      -0.1231
      2  CA        81.3490   87.7690  170.6480 C.3    19  GLN19       0.1698
      3  C         80.3660   86.7210  170.1130 C.2    19  GLN19       0.2593
      4  O         79.1590   86.8410  170.3240 O.2    19  GLN19      -0.2718
      5  CB        81.1480   89.0930  169.9010 C.3    19  GLN19       0.0381
      6  CG        81.4480   89.0300  168.4070 C.3    19  GLN19       0.0905
      7  CD        81.0940   90.3130  167.6900 C.2    19  GLN19       0.2608
      8  OE1       81.9730   91.0740  167.2940 O.2    19  GLN19      -0.2717
      9  NE2       79.7950   90.5640  167.5250 N.am   19  GLN19      -0.0878
     10  N         80.8840   85.7130  169.4130 N.am   20  GLY20      -0.1942
     11  CA        80.0470   84.6670  168.8120 C.3    20  GLY20       0.2014
     12  C         79.0400   85.2040  167.8100 C.2    20  GLY20       0.2639
     13  O         79.2880   86.2190  167.1500 O.2    20  GLY20      -0.2714
     14  N         77.8970   84.5290  167.7030 N.am   21  GLN21      -0.1963
     15  CA        76.8570   84.9040  166.7380 C.3    21  GLN21       0.1733
     16  C         75.8200   85.8660  167.3180 C.2    21  GLN21       0.2616
     17  O         74.6310   85.5450  167.4090 O.2    21  GLN21      -0.2715
     18  CB        76.1750   83.6640  166.1540 C.3    21  GLN21       0.0408
     19  CG        76.9370   82.9940  165.0190 C.3    21  GLN21       0.0908
     20  CD        77.0260   83.8410  163.7500 C.2    21  GLN21       0.2608
     21  OE1       76.1950   84.7200  163.5020 O.2    21  GLN21      -0.2717
     22  NE2       78.0380   83.5660  162.9360 N.am   21  GLN21      -0.0878
     23  N         76.2940   87.0470  167.7080 N.am   22  CYS22      -0.1954
     24  CA        75.4530   88.1290  168.2170 C.3    22  CYS22       0.1843
     25  C         76.1200   89.4380  167.8210 C.2    22  CYS22       0.2626
     26  O         77.3150   89.6200  168.0660 O.2    22  CYS22      -0.2714
     27  CB        75.3000   88.0190  169.7380 C.3    22  CYS22       0.0997
     28  SG        74.6700   89.5000  170.6120 S.3    22  CYS22      -0.0797
     29  N         75.3620   90.3330  167.1850 N.am   23  GLY23      -0.1954
     30  CA        75.9040   91.6050  166.6920 C.3    23  GLY23       0.1869
     31  C         76.2210   92.5840  167.8110 C.2    23  GLY23       0.2309
     32  O         75.6750   93.6880  167.8570 O.2    23  GLY23      -0.2863
     33  N         79.4150   93.7610  168.7660 N.3    25  CYS25      -0.1221
     34  CA        80.7280   94.4180  168.6560 C.3    25  CYS25       0.1808
     35  C         80.7980   95.7450  169.4240 C.2    25  CYS25       0.2601
     36  O         81.8170   96.0610  170.0410 O.2    25  CYS25      -0.2717
     37  CB        81.1080   94.6510  167.1890 C.3    25  CYS25       0.0970
     38  SG        79.8860   95.5690  166.1980 S.3    25  CYS25      -0.0800
     39  N         79.7050   96.5070  169.3770 N.am   26  TRP26      -0.1976
     40  CA        79.6130   97.8100  170.0440 C.3    26  TRP26       0.1640
     41  C         79.7620   97.7150  171.5610 C.2    26  TRP26       0.2290
     42  O         80.2840   98.6340  172.1970 O.2    26  TRP26      -0.2864
     43  CB        78.2900   98.4970  169.6990 C.3    26  TRP26       0.0576
     44  CG        77.0750   97.6890  170.0650 C.ar   26  TRP26       0.0006
     45  CD1       76.4320   96.7710  169.2790 C.ar   26  TRP26       0.0946
     46  CD2       76.3650   97.7170  171.3110 C.ar   26  TRP26       0.0152
     47  NE1       75.3650   96.2310  169.9570 N.ar   26  TRP26      -0.2442
     48  CE2       75.3000   96.7930  171.2050 C.ar   26  TRP26       0.0810
     49  CE3       76.5240   98.4370  172.5050 C.ar   26  TRP26       0.0012
     50  CZ2       74.3920   96.5680  172.2500 C.ar   26  TRP26       0.0191
     51  CZ3       75.6210   98.2070  173.5480 C.ar   26  TRP26       0.0001
     52  CH2       74.5690   97.2840  173.4080 C.ar   26  TRP26       0.0015
     53  N         71.6130   92.3970  170.0570 N.3    63  CYS63      -0.1221
     54  CA        72.4010   91.5990  169.1070 C.3    63  CYS63       0.1808
     55  C         72.2340   92.0840  167.6630 C.2    63  CYS63       0.2602
     56  O         72.7550   91.4650  166.7300 O.2    63  CYS63      -0.2717
     57  CB        72.0490   90.1080  169.2070 C.3    63  CYS63       0.0970
     58  SG        72.6580   89.2370  170.6750 S.3    63  CYS63      -0.0800
     59  N         71.5070   93.1860  167.4860 N.am   64  GLY64      -0.1942
     60  CA        71.3240   93.7950  166.1730 C.3    64  GLY64       0.2014
     61  C         72.0290   95.1270  165.9840 C.2    64  GLY64       0.2639
     62  O         71.6870   95.8810  165.0770 O.2    64  GLY64      -0.2714
     63  N         73.0080   95.4220  166.8390 N.am   65  GLY65      -0.1939
     64  CA        73.8080   96.6420  166.7060 C.3    65  GLY65       0.2014
     65  C         73.5520   97.7030  167.7610 C.2    65  GLY65       0.2639
     66  O         72.6220   97.5840  168.5610 O.2    65  GLY65      -0.2714
     67  N         74.3890   98.7400  167.7610 N.am   66  GLY66      -0.1939
     68  CA        74.2760   99.8460  168.7170 C.3    66  GLY66       0.2014
     69  C         75.4370  100.8250  168.6670 C.2    66  GLY66       0.2639
     70  O         76.4520  100.5680  168.0150 O.2    66  GLY66      -0.2714
     71  N         75.2860  101.9510  169.3640 N.am   67  TYR67      -0.1959
     72  CA        76.3250  102.9830  169.4280 C.3    67  TYR67       0.1771
     73  C         77.0430  102.9760  170.7720 C.2    67  TYR67       0.2619
     74  O         76.4230  102.7580  171.8180 O.2    67  TYR67      -0.2715
     75  CB        75.7370  104.3710  169.1420 C.3    67  TYR67       0.0574
     76  CG        75.3900  104.5700  167.6860 C.ar   67  TYR67      -0.0198
     77  CD1       76.2920  105.1740  166.8110 C.ar   67  TYR67      -0.0009
     78  CD2       74.1650  104.1330  167.1750 C.ar   67  TYR67      -0.0009
     79  CE1       75.9810  105.3460  165.4640 C.ar   67  TYR67       0.0417
     80  CE2       73.8460  104.2990  165.8280 C.ar   67  TYR67       0.0417
     81  CZ        74.7540  104.9050  164.9800 C.ar   67  TYR67       0.1957
     82  OH        74.4380  105.0670  163.6480 O.3    67  TYR67      -0.2866
     83  N         78.3530  103.2130  170.7310 N.am   68  MET68      -0.1977
     84  CA        79.1880  103.1910  171.9310 C.3    68  MET68       0.1605
     85  C         78.8340  104.3210  172.8970 C.2    68  MET68       0.2287
     86  O         78.8680  104.1290  174.1080 O.2    68  MET68      -0.2864
     87  CB        80.6790  103.2410  171.5710 C.3    68  MET68       0.0413
     88  CG        81.1900  102.0130  170.8110 C.3    68  MET68       0.0598
     89  SD        80.8540  102.0780  169.0370 S.3    68  MET68      -0.1393
     90  CE        82.1970  103.1180  168.4640 C.3    68  MET68       0.0692
     91  N         84.7720  103.2700  165.0940 N.3   134  ALA134     -0.1245
     92  CA        83.9100  102.5670  164.1420 C.3   134  ALA134      0.1562
     93  C         84.5380  102.5500  162.7500 C.2   134  ALA134      0.2260
     94  O         85.0890  103.5640  162.2910 O.2   134  ALA134     -0.2867
     95  CB        82.5260  103.1920  164.1010 C.3   134  ALA134      0.0290
     96  N         80.2980  102.9430  157.9370 N.3   160  LEU160     -0.1231
     97  CA        80.7300  102.4510  159.2410 C.3   160  LEU160      0.1693
     98  C         79.7650  101.3560  159.6720 C.2   160  LEU160      0.2592
     99  O         78.5640  101.5970  159.8020 O.2   160  LEU160     -0.2718
    100  CB        80.7720  103.5800  160.2750 C.3   160  LEU160      0.0284
    101  CG        81.5510  104.8590  159.9460 C.3   160  LEU160      0.0019
    102  CD1       81.3470  105.8980  161.0460 C.3   160  LEU160      0.0001
    103  CD2       83.0340  104.5860  159.7270 C.3   160  LEU160      0.0001
    104  N         80.2900  100.1510  159.8750 N.am  161  ASN161     -0.1960
    105  CA        79.4510   98.9880  160.1530 C.3   161  ASN161      0.1819
    106  C         79.9650   98.0700  161.2620 C.2   161  ASN161      0.2621
    107  O         79.2810   97.1160  161.6420 O.2   161  ASN161     -0.2715
    108  CB        79.2070   98.1870  158.8590 C.3   161  ASN161      0.1195
    109  CG        80.4940   97.8490  158.1260 C.2   161  ASN161      0.2630
    110  OD1       81.3930   97.2140  158.6800 O.2   161  ASN161     -0.2716
    111  ND2       80.5880   98.2720  156.8670 N.am  161  ASN161     -0.0877
    112  N         81.1600   98.3610  161.7770 N.am  162  HIS162     -0.1959
    113  CA        81.7990   97.5230  162.7960 C.3   162  HIS162      0.1787
    114  C         82.5030   98.3520  163.8640 C.2   162  HIS162      0.2620
    115  O         83.2050   99.3160  163.5540 O.2   162  HIS162     -0.2715
    116  CB        82.7890   96.5520  162.1460 C.3   162  HIS162      0.0785
    117  CG        83.3860   95.5550  163.0950 C.ar  162  HIS162      0.0821
    118  ND1       82.6230   94.7520  163.9140 N.ar  162  HIS162     -0.2267
    119  CD2       84.6750   95.2070  163.3250 C.ar  162  HIS162      0.1154
    120  CE1       83.4150   93.9680  164.6240 C.ar  162  HIS162      0.1986
    121  NE2       84.6660   94.2230  164.2850 N.ar  162  HIS162     -0.2212
    122  N         82.3110   97.9590  165.1190 N.am  163  ALA163     -0.1977
    123  CA        82.8990   98.6690  166.2510 C.3   163  ALA163      0.1597
    124  C         84.0710   97.8990  166.8530 C.2   163  ALA163      0.2287
    125  O         83.9570   96.7060  167.1610 O.2   163  ALA163     -0.2864
    126  CB        81.8360   98.9560  167.3090 C.3   163  ALA163      0.0319
    127  N         86.5860   88.9240  167.8090 N.3   184  TRP184     -0.1241
    128  CA        86.2800   87.6700  167.1130 C.3   184  TRP184      0.1605
    129  C         87.1670   86.5040  167.5670 C.2   184  TRP184      0.2264
    130  O         87.3450   85.5270  166.8360 O.2   184  TRP184     -0.2867
    131  CB        86.3530   87.8480  165.5880 C.3   184  TRP184      0.0550
    132  CG        85.4760   88.9550  165.0230 C.ar  184  TRP184      0.0003
    133  CD1       84.3930   89.5440  165.6220 C.ar  184  TRP184      0.0946
    134  CD2       85.5990   89.5720  163.7330 C.ar  184  TRP184      0.0152
    135  NE1       83.8530   90.5000  164.7960 N.ar  184  TRP184     -0.2442
    136  CE2       84.5700   90.5370  163.6300 C.ar  184  TRP184      0.0810
    137  CE3       86.4830   89.4090  162.6580 C.ar  184  TRP184      0.0012
    138  CZ2       84.4010   91.3370  162.4920 C.ar  184  TRP184      0.0191
    139  CZ3       86.3160   90.2070  161.5260 C.ar  184  TRP184      0.0001
    140  CH2       85.2790   91.1570  161.4540 C.ar  184  TRP184      0.0015
    141  N         83.9330  108.1560  163.8550 N.3   209  LEU209     -0.1245
    142  CA        83.0400  107.9560  165.0000 C.3   209  LEU209      0.1561
    143  C         83.7910  107.4080  166.2140 C.2   209  LEU209      0.2260
    144  O         83.5020  106.3090  166.7090 O.2   209  LEU209     -0.2867
    145  CB        81.8640  107.0410  164.6210 C.3   209  LEU209      0.0270
    146  CG        80.5980  107.1240  165.4850 C.3   209  LEU209      0.0019
    147  CD1       79.8900  108.4700  165.3220 C.3   209  LEU209      0.0001
    148  CD2       79.6500  105.9840  165.1530 C.3   209  LEU209      0.0001
@<TRIPOS>BOND
     1   111   109   am
     2    96    97    1
     3   109   110    2
     4   109   108    1
     5   108   105    1
     6    97    98    1
     7    97   100    1
     8    98    99    2
     9    98   104   am
    10   103   101    1
    11   104   105    1
    12   101   100    1
    13   101   102    1
    14   105   106    1
    15   106   107    2
    16   106   112   am
    17   140   139   ar
    18   140   138   ar
    19   139   137   ar
    20   112   113    1
    21   116   113    1
    22   116   117    1
    23    94    93    2
    24   138   136   ar
    25   137   134   ar
    26    93    92    1
    27   113   114    1
    28    22    20   am
    29   117   119   ar
    30   117   118   ar
    31   119   121   ar
    32    21    20    2
    33   115   114    2
    34   136   134   ar
    35   136   135   ar
    36    82    81    1
    37   134   132   ar
    38    20    19    1
    39   141   142    1
    40   114   122   am
    41   118   120   ar
    42    95    92    1
    43    92    91    1
    44   121   120   ar
    45   145   142    1
    46   145   146    1
    47   135   133   ar
    48    81    79   ar
    49    81    80   ar
    50   142   143    1
    51    19    18    1
    52   132   131    1
    53   132   133   ar
    54    62    61    2
    55   122   123    1
    56   148   146    1
    57   147   146    1
    58    79    77   ar
    59   131   128    1
    60    80    78   ar
    61    61    60    1
    62    61    63   am
    63    18    15    1
    64    60    59    1
    65    38    37    1
    66   143   144    2
    67   123   124    1
    68   123   126    1
    69    30    29    1
    70    30    31    1
    71    64    63    1
    72    64    65    1
    73    56    55    2
    74    15    16    1
    75    15    14    1
    76    77    76   ar
    77   130   129    2
    78   124   125    2
    79   128   129    1
    80   128   127    1
    81    13    12    2
    82    78    76   ar
    83    29    25   am
    84    37    34    1
    85     8     7    2
    86    16    17    2
    87    16    23   am
    88    59    55   am
    89     9     7   am
    90    55    54    1
    91    76    75    1
    92     7     6    1
    93    14    12   am
    94    23    24    1
    95    67    65   am
    96    67    68    1
    97    65    66    2
    98    12    11    1
    99    31    32    2
   100    25    26    2
   101    25    24    1
   102    70    69    2
   103    24    27    1
   104     6     5    1
   105    90    89    1
   106    34    33    1
   107    34    35    1
   108    69    68    1
   109    69    71   am
   110    11    10    1
   111    89    88    1
   112    54    57    1
   113    54    53    1
   114    75    72    1
   115    57    58    1
   116    45    47   ar
   117    45    44   ar
   118    71    72    1
   119    39    35   am
   120    39    40    1
   121    10     3   am
   122    35    36    2
   123    72    73    1
   124    43    40    1
   125    43    44    1
   126    27    28    1
   127     5     2    1
   128    47    48   ar
   129    40    41    1
   130    44    46   ar
   131     3     4    2
   132     3     2    1
   133     1     2    1
   134    28    58    1
   135    83    73   am
   136    83    84    1
   137    73    74    2
   138    88    87    1
   139    48    46   ar
   140    48    50   ar
   141    46    49   ar
   142    41    42    2
   143    87    84    1
   144    84    85    1
   145    50    52   ar
   146    49    51   ar
   147    85    86    2
   148    52    51   ar
