@<TRIPOS>MOLECULE
tmp/2bdmA05.pdb
 118 117 0 0 0
SMALL
GASTEIGER

@<TRIPOS>ATOM
      1  N         87.8600   45.5420   18.2530 N.3    71  ARG71      -0.1231
      2  CA        88.5060   44.2340   18.2700 C.3    71  ARG71       0.1694
      3  C         88.5320   43.6670   19.6840 C.2    71  ARG71       0.2593
      4  O         88.6740   44.4110   20.6590 O.2    71  ARG71      -0.2718
      5  CB        89.9460   44.3420   17.7450 C.3    71  ARG71       0.0321
      6  CG        90.6620   43.0040   17.6870 C.3    71  ARG71       0.0489
      7  CD        92.0720   43.0650   17.0780 C.3    71  ARG71       0.2205
      8  NE        92.6240   41.7120   16.9590 N.pl3  71  ARG71      -0.0865
      9  CZ        92.9800   40.9440   17.9920 C.cat  71  ARG71       0.5346
     10  NH1       93.4600   39.7220   17.7860 N.pl3  71  ARG71       0.1354
     11  NH2       92.8800   41.4020   19.2350 N.pl3  71  ARG71       0.1354
     12  N         88.3930   42.3480   19.7880 N.am   72  GLY72      -0.1942
     13  CA        88.4200   41.6960   21.0870 C.3    72  GLY72       0.2014
     14  C         89.8300   41.7110   21.6500 C.2    72  GLY72       0.2639
     15  O         90.7690   42.1500   20.9820 O.2    72  GLY72      -0.2714
     16  N         89.9850   41.2280   22.8750 N.am   73  LYS73      -0.1963
     17  CA        91.2900   41.1990   23.5320 C.3    73  LYS73       0.1728
     18  C         91.7300   39.7620   23.7600 C.2    73  LYS73       0.2616
     19  O         90.9140   38.8400   23.7410 O.2    73  LYS73      -0.2715
     20  CB        91.2180   41.8740   24.9080 C.3    73  LYS73       0.0311
     21  CG        90.6080   43.2630   24.9480 C.3    73  LYS73       0.0038
     22  CD        91.5480   44.3110   24.3910 C.3    73  LYS73       0.0206
     23  CE        91.0100   45.7060   24.6800 C.3    73  LYS73       0.1093
     24  NZ        91.8920   46.7640   24.1240 N.3    73  LYS73      -0.1314
     25  N         93.0230   39.5760   23.9810 N.am   74  ILE74      -0.1977
     26  CA        93.5370   38.2510   24.2820 C.3    74  ILE74       0.1596
     27  C         93.7950   38.2890   25.7770 C.2    74  ILE74       0.2287
     28  O         94.6690   39.0220   26.2460 O.2    74  ILE74      -0.2864
     29  CB        94.8410   37.9560   23.5270 C.3    74  ILE74       0.0276
     30  CG1       94.5170   37.7050   22.0490 C.3    74  ILE74       0.0022
     31  CG2       95.5610   36.7680   24.1690 C.3    74  ILE74       0.0022
     32  CD1       95.7160   37.3880   21.2010 C.3    74  ILE74       0.0001
     33  N         96.9200   40.6180   27.2500 N.3    86  VAL86      -0.1231
     34  CA        98.2920   40.4700   26.7860 C.3    86  VAL86       0.1692
     35  C         98.4050   41.0680   25.3920 C.2    86  VAL86       0.2592
     36  O         97.5590   40.8220   24.5410 O.2    86  VAL86      -0.2718
     37  CB        98.6920   38.9810   26.7520 C.3    86  VAL86       0.0266
     38  CG1      100.0890   38.8200   26.1750 C.3    86  VAL86       0.0020
     39  CG2       98.6350   38.4090   28.1680 C.3    86  VAL86       0.0020
     40  N         99.4510   41.8490   25.1560 N.am   87  ILE87      -0.1966
     41  CA        99.6310   42.4900   23.8560 C.3    87  ILE87       0.1727
     42  C        101.0930   42.5150   23.4550 C.2    87  ILE87       0.2616
     43  O        101.9690   42.2070   24.2630 O.2    87  ILE87      -0.2715
     44  CB        99.1450   43.9700   23.8810 C.3    87  ILE87       0.0290
     45  CG1       99.9420   44.7490   24.9340 C.3    87  ILE87       0.0022
     46  CG2       97.6610   44.0490   24.2110 C.3    87  ILE87       0.0023
     47  CD1       99.6150   46.2330   24.9790 C.3    87  ILE87       0.0001
     48  N        101.3490   42.8700   22.1990 N.am   88  PHE88      -0.1974
     49  CA       102.7160   43.0000   21.7070 C.3    88  PHE88       0.1639
     50  C        103.2040   44.3310   22.2790 C.2    88  PHE88       0.2290
     51  O        102.4720   45.3270   22.2710 O.2    88  PHE88      -0.2864
     52  CB       102.7410   43.0430   20.1720 C.3    88  PHE88       0.0560
     53  CG       102.5550   41.6930   19.5100 C.ar   88  PHE88      -0.0200
     54  CD1      101.8760   41.5860   18.3020 C.ar   88  PHE88      -0.0042
     55  CD2      103.0690   40.5330   20.0910 C.ar   88  PHE88      -0.0042
     56  CE1      101.7040   40.3470   17.6770 C.ar   88  PHE88      -0.0003
     57  CE2      102.9040   39.2890   19.4740 C.ar   88  PHE88      -0.0003
     58  CZ       102.2180   39.2010   18.2630 C.ar   88  PHE88      -0.0000
     59  N        103.7260   48.5120   19.3890 N.3    91  GLY91      -0.1225
     60  CA       102.5180   48.7360   18.6100 C.3    91  GLY91       0.1811
     61  C        102.6940   48.6820   17.1000 C.2    91  GLY91       0.2280
     62  O        101.7560   48.3400   16.3710 O.2    91  GLY91      -0.2866
     63  N        102.2040   45.2420   15.4370 N.3    94  TRP94      -0.1227
     64  CA       100.8050   44.9350   15.2310 C.3    94  TRP94       0.1737
     65  C        100.2590   45.6170   13.9780 C.2    94  TRP94       0.2595
     66  O         99.6060   44.9770   13.1520 O.2    94  TRP94      -0.2718
     67  CB        99.9970   45.3640   16.4530 C.3    94  TRP94       0.0564
     68  CG        98.5520   45.1050   16.3010 C.ar   94  TRP94       0.0003
     69  CD1       97.5630   46.0300   16.1640 C.ar   94  TRP94       0.0946
     70  CD2       97.9250   43.8240   16.2070 C.ar   94  TRP94       0.0152
     71  NE1       96.3490   45.4050   15.9860 N.ar   94  TRP94      -0.2442
     72  CE2       96.5430   44.0500   16.0080 C.ar   94  TRP94       0.0810
     73  CE3       98.3960   42.5040   16.2710 C.ar   94  TRP94       0.0012
     74  CZ2       95.6270   43.0070   15.8700 C.ar   94  TRP94       0.0191
     75  CZ3       97.4840   41.4640   16.1350 C.ar   94  TRP94       0.0001
     76  CH2       96.1130   41.7230   15.9360 C.ar   94  TRP94       0.0015
     77  N        100.5230   46.9130   13.8350 N.am   95  ARG95      -0.1980
     78  CA       100.0430   47.6570   12.6710 C.3    95  ARG95       0.1597
     79  C        100.6060   47.0480   11.3840 C.2    95  ARG95       0.2287
     80  O         99.8870   46.8880   10.3930 O.2    95  ARG95      -0.2864
     81  CB       100.4290   49.1440   12.7820 C.3    95  ARG95       0.0334
     82  CG        99.6880   49.9030   13.8980 C.3    95  ARG95       0.0492
     83  CD        99.9180   51.4190   13.8370 C.3    95  ARG95       0.2205
     84  NE       101.2870   51.8150   14.1710 N.pl3  95  ARG95      -0.0865
     85  CZ       101.7540   51.9760   15.4100 C.cat  95  ARG95       0.5346
     86  NH1      100.9650   51.7820   16.4620 N.pl3  95  ARG95       0.1354
     87  NH2      103.0210   52.3270   15.5990 N.pl3  95  ARG95       0.1354
     88  N        109.0540   32.8760   25.5230 N.3   197  LEU197     -0.1245
     89  CA       107.6550   32.5250   25.4550 C.3   197  LEU197      0.1561
     90  C        107.5000   31.5770   24.2780 C.2   197  LEU197      0.2260
     91  O        107.6160   31.9810   23.1100 O.2   197  LEU197     -0.2867
     92  CB       106.7880   33.7690   25.2560 C.3   197  LEU197      0.0270
     93  CG       105.2830   33.5150   25.1280 C.3   197  LEU197      0.0019
     94  CD1      104.8020   32.6710   26.2850 C.3   197  LEU197      0.0001
     95  CD2      104.5360   34.8360   25.0970 C.3   197  LEU197      0.0001
     96  N        104.8180   29.3740   22.7390 N.3   199  TYR199     -0.1227
     97  CA       103.3900   29.1200   22.8190 C.3   199  TYR199      0.1736
     98  C        102.9290   27.9830   21.9110 C.2   199  TYR199      0.2595
     99  O        102.0820   27.1700   22.2960 O.2   199  TYR199     -0.2718
    100  CB       102.6230   30.4080   22.4900 C.3   199  TYR199      0.0548
    101  CG       101.1240   30.2510   22.5650 C.ar  199  TYR199     -0.0200
    102  CD1      100.4830   30.0400   23.7860 C.ar  199  TYR199     -0.0009
    103  CD2      100.3530   30.2520   21.4040 C.ar  199  TYR199     -0.0009
    104  CE1       99.1040   29.8290   23.8440 C.ar  199  TYR199      0.0417
    105  CE2       98.9830   30.0430   21.4500 C.ar  199  TYR199      0.0417
    106  CZ        98.3650   29.8320   22.6680 C.ar  199  TYR199      0.1957
    107  OH        97.0090   29.6260   22.6940 O.3   199  TYR199     -0.2866
    108  N        103.4970   27.9150   20.7150 N.am  200  PHE200     -0.1976
    109  CA       103.1050   26.8830   19.7770 C.3   200  PHE200      0.1639
    110  C        103.8030   25.5450   20.0030 C.2   200  PHE200      0.2290
    111  O        104.9610   25.4920   20.4170 O.2   200  PHE200     -0.2864
    112  CB       103.2970   27.4030   18.3610 C.3   200  PHE200      0.0560
    113  CG       102.5320   28.6680   18.0970 C.ar  200  PHE200     -0.0200
    114  CD1      103.0860   29.9080   18.3990 C.ar  200  PHE200     -0.0042
    115  CD2      101.2320   28.6190   17.6040 C.ar  200  PHE200     -0.0042
    116  CE1      102.3590   31.0820   18.2150 C.ar  200  PHE200     -0.0003
    117  CE2      100.4960   29.7860   17.4170 C.ar  200  PHE200     -0.0003
    118  CZ       101.0640   31.0210   17.7240 C.ar  200  PHE200     -0.0000
@<TRIPOS>BOND
     1    80    79    2
     2    79    78    1
     3    78    81    1
     4    78    77    1
     5    81    82    1
     6    66    65    2
     7    77    65   am
     8    83    82    1
     9    83    84    1
    10    65    64    1
    11    84    85    2
    12    64    63    1
    13    64    67    1
    14    85    87    1
    15    85    86    1
    16    74    76   ar
    17    74    72   ar
    18    76    75   ar
    19    71    72   ar
    20    71    69   ar
    21    72    70   ar
    22    75    73   ar
    23    69    68   ar
    24    70    73   ar
    25    70    68   ar
    26    68    67    1
    27    62    61    2
    28     8     7    1
    29     8     9    2
    30     7     6    1
    31    61    60    1
    32   117   115   ar
    33   117   118   ar
    34   115   113   ar
    35    56    58   ar
    36    56    54   ar
    37     6     5    1
    38   118   116   ar
    39     5     2    1
    40    10     9    1
    41     9    11    1
    42   113   112    1
    43   113   114   ar
    44   116   114   ar
    45     1     2    1
    46    58    57   ar
    47     2     3    1
    48    54    53   ar
    49   112   109    1
    50    60    59    1
    51    57    55   ar
    52    53    55   ar
    53    53    52    1
    54     3    12   am
    55     3     4    2
    56   109   110    1
    57   109   108    1
    58    12    13    1
    59   110   111    2
    60    52    49    1
    61   108    98   am
    62    15    14    2
    63    13    14    1
    64    32    30    1
    65   103   105   ar
    66   103   101   ar
    67   105   106   ar
    68    14    16   am
    69    49    48    1
    70    49    50    1
    71    98    99    2
    72    98    97    1
    73    30    29    1
    74    48    42   am
    75    51    50    2
    76   100   101    1
    77   100    97    1
    78   101   102   ar
    79   106   107    1
    80   106   104   ar
    81    96    97    1
    82    16    17    1
    83    91    90    2
    84    42    41    1
    85    42    43    2
    86    29    31    1
    87    29    26    1
    88    17    18    1
    89    17    20    1
    90    19    18    2
    91    18    25   am
    92   102   104   ar
    93    41    44    1
    94    41    40    1
    95    44    46    1
    96    44    45    1
    97    25    26    1
    98    24    23    1
    99    90    89    1
   100    26    27    1
   101    22    23    1
   102    22    21    1
   103    36    35    2
   104    20    21    1
   105    45    47    1
   106    95    93    1
   107    93    92    1
   108    93    94    1
   109    40    35   am
   110    92    89    1
   111    35    34    1
   112    89    88    1
   113    27    28    2
   114    38    37    1
   115    37    34    1
   116    37    39    1
   117    34    33    1
