@<TRIPOS>MOLECULE
tmp/2bdmA06.pdb
 138 130 0 0 0
SMALL
GASTEIGER

@<TRIPOS>ATOM
      1  N        100.3390   30.6900   -4.1330 N.3   156  VAL156     -0.1231
      2  CA       101.6930   31.0870   -3.7850 C.3   156  VAL156      0.1692
      3  C        102.7580   30.5910   -4.7560 C.2   156  VAL156      0.2592
      4  O        103.5360   31.3830   -5.2880 O.2   156  VAL156     -0.2718
      5  CB       102.0560   30.6080   -2.3590 C.3   156  VAL156      0.0266
      6  CG1      103.5480   30.7880   -2.1010 C.3   156  VAL156      0.0020
      7  CG2      101.2450   31.3910   -1.3380 C.3   156  VAL156      0.0020
      8  N        102.7870   29.2830   -4.9910 N.am  157  PHE157     -0.1976
      9  CA       103.7920   28.6970   -5.8720 C.3   157  PHE157      0.1639
     10  C        103.4390   28.6330   -7.3510 C.2   157  PHE157      0.2290
     11  O        104.3080   28.3850   -8.1830 O.2   157  PHE157     -0.2864
     12  CB       104.1620   27.2990   -5.3750 C.3   157  PHE157      0.0560
     13  CG       104.6530   27.2770   -3.9560 C.ar  157  PHE157     -0.0200
     14  CD1      103.8670   26.7370   -2.9400 C.ar  157  PHE157     -0.0042
     15  CD2      105.9000   27.8060   -3.6320 C.ar  157  PHE157     -0.0042
     16  CE1      104.3180   26.7230   -1.6240 C.ar  157  PHE157     -0.0003
     17  CE2      106.3590   27.7990   -2.3190 C.ar  157  PHE157     -0.0003
     18  CZ       105.5670   27.2560   -1.3130 C.ar  157  PHE157     -0.0000
     19  N        110.8690   26.0190   -0.2380 N.3   218  ILE218     -0.1231
     20  CA       110.5380   27.4200   -0.4710 C.3   218  ILE218      0.1692
     21  C        111.7550   28.1390   -1.0470 C.2   218  ILE218      0.2592
     22  O        111.6500   28.8880   -2.0250 O.2   218  ILE218     -0.2718
     23  CB       110.0970   28.1150    0.8410 C.3   218  ILE218      0.0266
     24  CG1      108.8540   27.4130    1.4010 C.3   218  ILE218      0.0019
     25  CG2      109.8200   29.5950    0.5820 C.3   218  ILE218      0.0020
     26  CD1      108.4270   27.8820    2.7760 C.3   218  ILE218      0.0001
     27  N        112.9130   27.8970   -0.4380 N.am  219  GLY219     -0.1957
     28  CA       114.1370   28.5190   -0.9060 C.3   219  GLY219      0.1869
     29  C        114.3640   28.3190   -2.3930 C.2   219  GLY219      0.2309
     30  O        114.4630   29.2870   -3.1500 O.2   219  GLY219     -0.2863
     31  N        111.7940   29.9210   -4.6410 N.3   222  VAL222     -0.1231
     32  CA       111.9840   31.3530   -4.7870 C.3   222  VAL222      0.1692
     33  C        113.1350   31.5790   -5.7600 C.2   222  VAL222      0.2591
     34  O        113.1830   32.5880   -6.4650 O.2   222  VAL222     -0.2718
     35  CB       112.3230   32.0170   -3.4450 C.3   222  VAL222      0.0266
     36  CG1      112.6480   33.4870   -3.6610 C.3   222  VAL222      0.0020
     37  CG2      111.1500   31.8770   -2.4930 C.3   222  VAL222      0.0020
     38  N        114.0550   30.6210   -5.7980 N.am  223  GLU223     -0.1979
     39  CA       115.2120   30.6950   -6.6830 C.3   223  GLU223      0.1602
     40  C        114.7590   30.5540   -8.1340 C.2   223  GLU223      0.2287
     41  O        115.0690   31.3990   -8.9760 O.2   223  GLU223     -0.2864
     42  CB       116.2060   29.5800   -6.3400 C.3   223  GLU223      0.0415
     43  CG       117.6280   29.8460   -6.7950 C.3   223  GLU223      0.1163
     44  CD       118.2780   30.9800   -6.0250 C.2   223  GLU223      0.3649
     45  OE1      119.4280   31.3400   -6.3520 O.co2 223  GLU223     -0.2457
     46  OE2      117.6410   31.5100   -5.0890 O.co2 223  GLU223     -0.2457
     47  N        112.8640   33.4940   -9.4490 N.3   226  ARG226     -0.1245
     48  CA       113.7420   34.6250   -9.7070 C.3   226  ARG226      0.1563
     49  C        114.4840   34.4730  -11.0280 C.2   226  ARG226      0.2260
     50  O        114.5720   35.4180  -11.8100 O.2   226  ARG226     -0.2867
     51  CB       114.7390   34.7780   -8.5580 C.3   226  ARG226      0.0307
     52  CG       115.6570   35.9850   -8.6660 C.3   226  ARG226      0.0489
     53  CD       115.9450   36.5380   -7.2820 C.3   226  ARG226      0.2205
     54  NE       116.3900   35.4900   -6.3690 N.pl3 226  ARG226     -0.0865
     55  CZ       116.3510   35.5840   -5.0430 C.cat 226  ARG226      0.5346
     56  NH1      115.8830   36.6860   -4.4650 N.pl3 226  ARG226      0.1354
     57  NH2      116.7790   34.5750   -4.2950 N.pl3 226  ARG226      0.1354
     58  N        102.2270   34.5880   -6.3350 N.3   237  PHE237     -0.1227
     59  CA       102.5700   35.4680   -5.2330 C.3   237  PHE237      0.1736
     60  C        104.0740   35.5570   -5.0090 C.2   237  PHE237      0.2595
     61  O        104.5670   36.5740   -4.5250 O.2   237  PHE237     -0.2718
     62  CB       101.8640   35.0240   -3.9460 C.3   237  PHE237      0.0547
     63  CG       102.0770   35.9610   -2.7920 C.ar  237  PHE237     -0.0202
     64  CD1      103.0530   35.6990   -1.8340 C.ar  237  PHE237     -0.0042
     65  CD2      101.3420   37.1390   -2.6960 C.ar  237  PHE237     -0.0042
     66  CE1      103.2990   36.6000   -0.7970 C.ar  237  PHE237     -0.0003
     67  CE2      101.5800   38.0460   -1.6640 C.ar  237  PHE237     -0.0003
     68  CZ       102.5610   37.7770   -0.7140 C.ar  237  PHE237     -0.0000
     69  N        104.8120   34.5050   -5.3470 N.am  238  ILE238     -0.1980
     70  CA       106.2560   34.5690   -5.1730 C.3   238  ILE238      0.1595
     71  C        106.8150   35.6410   -6.1080 C.2   238  ILE238      0.2287
     72  O        107.7290   36.3780   -5.7380 O.2   238  ILE238     -0.2864
     73  CB       106.9340   33.2070   -5.4440 C.3   238  ILE238      0.0276
     74  CG1      106.6100   32.2460   -4.2910 C.3   238  ILE238      0.0022
     75  CG2      108.4420   33.3840   -5.5680 C.3   238  ILE238      0.0022
     76  CD1      107.3680   30.9300   -4.3230 C.3   238  ILE238      0.0001
     77  N        106.1090   39.0940   -4.7990 N.3   241  TYR241     -0.1241
     78  CA       107.0560   39.4370   -3.7510 C.3   241  TYR241      0.1605
     79  C        108.3880   39.8760   -4.3370 C.2   241  TYR241      0.2264
     80  O        108.9390   40.8990   -3.9360 O.2   241  TYR241     -0.2867
     81  CB       107.2640   38.2480   -2.8060 C.3   241  TYR241      0.0534
     82  CG       108.5180   38.3520   -1.9680 C.ar  241  TYR241     -0.0201
     83  CD1      109.7190   37.7910   -2.4060 C.ar  241  TYR241     -0.0009
     84  CD2      108.5160   39.0390   -0.7550 C.ar  241  TYR241     -0.0009
     85  CE1      110.8870   37.9110   -1.6560 C.ar  241  TYR241      0.0417
     86  CE2      109.6790   39.1690    0.0040 C.ar  241  TYR241      0.0417
     87  CZ       110.8620   38.6010   -0.4530 C.ar  241  TYR241      0.1957
     88  OH       112.0220   38.7220    0.2860 O.3   241  TYR241     -0.2866
     89  N        109.9590   43.7620   -4.2660 N.3   245  MET245     -0.1245
     90  CA       111.1820   43.7180   -3.4710 C.3   245  MET245      0.1570
     91  C        112.2450   44.5410   -4.1910 C.2   245  MET245      0.2261
     92  O        113.2850   44.8710   -3.6190 O.2   245  MET245     -0.2867
     93  CB       111.6680   42.2740   -3.3020 C.3   245  MET245      0.0387
     94  CG       112.9760   42.1420   -2.5280 C.3   245  MET245      0.0595
     95  SD       113.5530   40.4340   -2.3310 S.3   245  MET245     -0.1393
     96  CE       114.5580   40.2120   -3.8120 C.3   245  MET245      0.0692
     97  N        115.1180   43.5380    6.7560 N.3   255  GLU255     -0.1245
     98  CA       114.8070   42.6120    5.6770 C.3   255  GLU255      0.1567
     99  C        114.2310   41.3450    6.3060 C.2   255  GLU255      0.2260
    100  O        113.2460   40.7770    5.8180 O.2   255  GLU255     -0.2867
    101  CB       116.0760   42.2860    4.8910 C.3   255  GLU255      0.0388
    102  CG       115.8750   41.3020    3.7550 C.3   255  GLU255      0.1160
    103  CD       117.1520   41.0570    2.9710 C.2   255  GLU255      0.3649
    104  OE1      117.1370   40.2050    2.0560 O.co2 255  GLU255     -0.2457
    105  OE2      118.1690   41.7210    3.2710 O.co2 255  GLU255     -0.2457
    106  N        110.4160   39.7180    5.5210 N.3   259  GLN259     -0.1245
    107  CA       110.3210   38.3400    5.0830 C.3   259  GLN259      0.1566
    108  C        109.5780   37.4560    6.0720 C.2   259  GLN259      0.2260
    109  O        108.6540   36.7250    5.6960 O.2   259  GLN259     -0.2867
    110  CB       111.7210   37.7840    4.8230 C.3   259  GLN259      0.0367
    111  CG       112.2680   38.1760    3.4570 C.3   259  GLN259      0.0905
    112  CD       113.7710   38.0060    3.3430 C.2   259  GLN259      0.2608
    113  OE1      114.3510   37.0660    3.8900 O.2   259  GLN259     -0.2717
    114  NE2      114.4100   38.9130    2.6120 N.am  259  GLN259     -0.0878
    115  N        105.8660   38.0500    6.2670 N.3   262  ILE262     -0.1231
    116  CA       105.1200   37.4590    5.1620 C.3   262  ILE262      0.1692
    117  C        104.8390   35.9860    5.4640 C.2   262  ILE262      0.2591
    118  O        103.7270   35.4940    5.2500 O.2   262  ILE262     -0.2718
    119  CB       105.8860   37.5620    3.8310 C.3   262  ILE262      0.0266
    120  CG1      106.1530   39.0280    3.4980 C.3   262  ILE262      0.0019
    121  CG2      105.0500   36.9710    2.7140 C.3   262  ILE262      0.0020
    122  CD1      107.0010   39.2400    2.2530 C.3   262  ILE262      0.0001
    123  N        105.8530   35.2850    5.9630 N.am  263  LEU263     -0.1980
    124  CA       105.6930   33.8790    6.3090 C.3   263  LEU263      0.1596
    125  C        104.6310   33.7330    7.4000 C.2   263  LEU263      0.2287
    126  O        103.7730   32.8510    7.3340 O.2   263  LEU263     -0.2864
    127  CB       107.0240   33.3020    6.7900 C.3   263  LEU263      0.0297
    128  CG       108.0540   33.1350    5.6710 C.3   263  LEU263      0.0022
    129  CD1      109.3980   32.7580    6.2630 C.3   263  LEU263      0.0001
    130  CD2      107.5790   32.0630    4.6890 C.3   263  LEU263      0.0001
    131  N        101.3350   34.0870    5.8540 N.3   266  LEU266     -0.1245
    132  CA       100.9660   32.9070    5.0820 C.3   266  LEU266      0.1561
    133  C        100.5440   31.7930    6.0410 C.2   266  LEU266      0.2260
    134  O         99.6270   31.0350    5.7450 O.2   266  LEU266     -0.2867
    135  CB       102.1220   32.4670    4.1740 C.3   266  LEU266      0.0270
    136  CG       102.4700   33.4980    3.0820 C.3   266  LEU266      0.0019
    137  CD1      103.6400   33.0010    2.2510 C.3   266  LEU266      0.0001
    138  CD2      101.2660   33.7580    2.1900 C.3   266  LEU266      0.0001
@<TRIPOS>BOND
     1    50    49    2
     2    49    48    1
     3    48    47    1
     4    48    51    1
     5    41    40    2
     6    52    51    1
     7    52    53    1
     8    11    10    2
     9    40    39    1
    10    10     9    1
    11    53    54    1
    12    43    42    1
    13    43    44    1
    14    39    42    1
    15    39    38    1
    16    34    33    2
    17    54    55    2
    18    45    44   ar
    19    58    59    1
    20    71    72    2
    21    71    70    1
    22    44    46   ar
    23     9    12    1
    24     9     8    1
    25    38    33   am
    26    33    32    1
    27    75    73    1
    28    73    70    1
    29    73    74    1
    30    12    13    1
    31    69    70    1
    32    69    60   am
    33     4     3    2
    34    59    60    1
    35    59    62    1
    36    55    56    1
    37    55    57    1
    38    60    61    2
    39     8     3   am
    40    77    78    1
    41    32    31    1
    42    32    35    1
    43     3     2    1
    44    79    80    2
    45    79    78    1
    46    76    74    1
    47    89    90    1
    48    91    92    2
    49    91    90    1
    50     1     2    1
    51    13    15   ar
    52    13    14   ar
    53    62    63    1
    54    96    95    1
    55     2     5    1
    56    78    81    1
    57    36    35    1
    58    15    17   ar
    59    90    93    1
    60    35    37    1
    61    93    94    1
    62    30    29    2
    63    14    16   ar
    64    81    82    1
    65    63    65   ar
    66    63    64   ar
    67    65    67   ar
    68    94    95    1
    69    83    82   ar
    70    83    85   ar
    71    29    28    1
    72     5     6    1
    73     5     7    1
    74    17    18   ar
    75    22    21    2
    76    82    84   ar
    77    64    66   ar
    78    67    68   ar
    79    85    87   ar
    80    16    18   ar
    81    21    20    1
    82    21    27   am
    83    28    27    1
    84    66    68   ar
    85    84    86   ar
    86    20    19    1
    87    20    23    1
    88    87    86   ar
    89    87    88    1
    90    25    23    1
    91    23    24    1
    92    24    26    1
    93   104   103   ar
    94   138   136    1
    95   137   136    1
    96   122   120    1
    97   114   112   am
    98   121   119    1
    99   103   105   ar
   100   103   102    1
   101   136   135    1
   102   112   111    1
   103   112   113    2
   104   111   110    1
   105   120   119    1
   106   102   101    1
   107   119   116    1
   108   135   132    1
   109   130   128    1
   110   110   107    1
   111   101    98    1
   112   132   131    1
   113   132   133    1
   114   107   106    1
   115   107   108    1
   116   116   117    1
   117   116   115    1
   118   118   117    2
   119   117   123   am
   120   128   129    1
   121   128   127    1
   122    98    99    1
   123    98    97    1
   124   109   108    2
   125   134   133    2
   126   100    99    2
   127   123   124    1
   128   124   127    1
   129   124   125    1
   130   126   125    2
