@<TRIPOS>MOLECULE
tmp/2bdmA03.pdb
 118 113 0 0 0
SMALL
GASTEIGER

@<TRIPOS>ATOM
      1  N         87.7970   26.6520   34.9280 N.3    18  GLN18      -0.1231
      2  CA        86.6970   26.2230   34.0700 C.3    18  GLN18       0.1698
      3  C         87.3560   25.7290   32.7880 C.2    18  GLN18       0.2592
      4  O         88.0100   26.5030   32.0880 O.2    18  GLN18      -0.2718
      5  CB        85.7670   27.4000   33.7620 C.3    18  GLN18       0.0381
      6  CG        85.6720   28.4190   34.8860 C.3    18  GLN18       0.0905
      7  CD        86.5270   29.6460   34.6270 C.2    18  GLN18       0.2608
      8  OE1       86.0550   30.6410   34.0790 O.2    18  GLN18      -0.2717
      9  NE2       87.7960   29.5750   35.0050 N.am   18  GLN18      -0.0878
     10  N         87.1900   24.4470   32.4790 N.am   19  MET19      -0.1965
     11  CA        87.8260   23.8840   31.2900 C.3    19  MET19       0.1736
     12  C         87.0800   22.7350   30.6200 C.2    19  MET19       0.2616
     13  O         87.4810   21.5780   30.7440 O.2    19  MET19      -0.2715
     14  CB        89.2420   23.4190   31.6480 C.3    19  MET19       0.0427
     15  CG        90.3140   24.4810   31.4900 C.3    19  MET19       0.0599
     16  SD        91.1800   24.3060   29.9210 S.3    19  MET19      -0.1393
     17  CE        89.8300   24.4860   28.7640 C.3    19  MET19       0.0692
     18  N         86.0140   23.0570   29.8930 N.am   20  ASP20      -0.1957
     19  CA        85.2210   22.0480   29.1940 C.3    20  ASP20       0.1840
     20  C         83.8720   22.6190   28.7770 C.2    20  ASP20       0.2621
     21  O         83.2190   23.3070   29.5590 O.2    20  ASP20      -0.2715
     22  CB        85.0090   20.8250   30.0910 C.3    20  ASP20       0.1450
     23  CG        84.1130   19.7870   29.4580 C.2    20  ASP20       0.3671
     24  OD1       82.8870   20.0160   29.4120 O.co2  20  ASP20      -0.2456
     25  OD2       84.6330   18.7480   28.9990 O.co2  20  ASP20      -0.2456
     26  N         83.4560   22.3320   27.5470 N.am   21  ARG21      -0.1977
     27  CA        82.1800   22.8310   27.0470 C.3    21  ARG21       0.1597
     28  C         80.9640   22.0870   27.6030 C.2    21  ARG21       0.2287
     29  O         79.9150   22.6910   27.8280 O.2    21  ARG21      -0.2864
     30  CB        82.1640   22.8050   25.5120 C.3    21  ARG21       0.0334
     31  CG        82.9340   23.9610   24.8840 C.3    21  ARG21       0.0492
     32  CD        82.7750   24.0590   23.3620 C.3    21  ARG21       0.2205
     33  NE        83.5200   23.0240   22.6520 N.pl3  21  ARG21      -0.0865
     34  CZ        83.0500   21.8140   22.3680 C.cat  21  ARG21       0.5346
     35  NH1       81.8180   21.4700   22.7200 N.pl3  21  ARG21       0.1354
     36  NH2       83.8250   20.9400   21.7460 N.pl3  21  ARG21       0.1354
     37  N         80.5760   23.9310   30.4640 N.3    24  LEU24      -0.1245
     38  CA        80.5500   25.3670   30.2370 C.3    24  LEU24       0.1561
     39  C         79.2130   25.7030   29.5880 C.2    24  LEU24       0.2260
     40  O         78.6890   26.8050   29.7460 O.2    24  LEU24      -0.2867
     41  CB        81.7110   25.7760   29.3320 C.3    24  LEU24       0.0270
     42  CG        82.0690   27.2610   29.2860 C.3    24  LEU24       0.0019
     43  CD1       83.4520   27.4300   28.6880 C.3    24  LEU24       0.0001
     44  CD2       81.0350   28.0170   28.4810 C.3    24  LEU24       0.0001
     45  N         79.6680   38.2550   32.8630 N.3    41  VAL41      -0.1231
     46  CA        80.3920   37.2380   33.6180 C.3    41  VAL41       0.1692
     47  C         81.8070   37.7790   33.7400 C.2    41  VAL41       0.2592
     48  O         82.2490   38.5630   32.9040 O.2    41  VAL41      -0.2718
     49  CB        80.4340   35.8620   32.9040 C.3    41  VAL41       0.0266
     50  CG1       79.0470   35.2560   32.8620 C.3    41  VAL41       0.0020
     51  CG2       80.9830   36.0130   31.5000 C.3    41  VAL41       0.0020
     52  N         82.5150   37.3730   34.7830 N.am   42  TYR42      -0.1962
     53  CA        83.8720   37.8470   34.9910 C.3    42  TYR42       0.1771
     54  C         84.9540   36.8260   34.6890 C.2    42  TYR42       0.2619
     55  O         84.8150   35.6490   35.0030 O.2    42  TYR42      -0.2715
     56  CB        84.0440   38.3350   36.4340 C.3    42  TYR42       0.0574
     57  CG        83.4380   39.6980   36.6790 C.ar   42  TYR42      -0.0198
     58  CD1       82.0570   39.8610   36.8150 C.ar   42  TYR42      -0.0009
     59  CD2       84.2430   40.8380   36.7070 C.ar   42  TYR42      -0.0009
     60  CE1       81.4960   41.1310   36.9700 C.ar   42  TYR42       0.0417
     61  CE2       83.6960   42.1070   36.8540 C.ar   42  TYR42       0.0417
     62  CZ        82.3230   42.2480   36.9840 C.ar   42  TYR42       0.1957
     63  OH        81.7890   43.5120   37.1100 O.3    42  TYR42      -0.2866
     64  N         86.0140   37.2850   34.0350 N.am   43  LEU43      -0.1977
     65  CA        87.1650   36.4460   33.7630 C.3    43  LEU43       0.1596
     66  C         88.1690   37.1170   34.6900 C.2    43  LEU43       0.2287
     67  O         88.7210   38.1730   34.3670 O.2    43  LEU43      -0.2864
     68  CB        87.6160   36.5630   32.3150 C.3    43  LEU43       0.0297
     69  CG        88.8850   35.7610   32.0020 C.3    43  LEU43       0.0022
     70  CD1       88.6930   34.2970   32.4150 C.3    43  LEU43       0.0001
     71  CD2       89.2010   35.8580   30.5120 C.3    43  LEU43       0.0001
     72  N         82.9420   40.7370   31.2860 N.3    48  VAL48      -0.1245
     73  CA        82.7650   40.3490   29.8970 C.3    48  VAL48       0.1561
     74  C         81.2700   40.2470   29.6870 C.2    48  VAL48       0.2260
     75  O         80.5820   39.5700   30.4520 O.2    48  VAL48      -0.2867
     76  CB        83.4230   38.9760   29.5950 C.3    48  VAL48       0.0252
     77  CG1       83.1070   38.5440   28.1750 C.3    48  VAL48       0.0019
     78  CG2       84.9300   39.0710   29.7730 C.3    48  VAL48       0.0019
     79  N         93.6310   32.9930   30.6890 N.3    77  VAL77      -0.1245
     80  CA        92.5540   32.1850   31.2480 C.3    77  VAL77       0.1561
     81  C         92.9560   31.3720   32.4810 C.2    77  VAL77       0.2260
     82  O         92.0970   30.9580   33.2600 O.2    77  VAL77      -0.2867
     83  CB        91.9880   31.2530   30.1610 C.3    77  VAL77       0.0252
     84  CG1       91.0290   30.2540   30.7610 C.3    77  VAL77       0.0019
     85  CG2       91.2760   32.0870   29.1140 C.3    77  VAL77       0.0019
     86  N         80.8220   30.1570   20.5910 N.3   338  PHE338     -0.1241
     87  CA        80.8530   31.3140   21.4710 C.3   338  PHE338      0.1605
     88  C         81.0820   32.6450   20.7790 C.2   338  PHE338      0.2264
     89  O         80.9750   33.6980   21.4100 O.2   338  PHE338     -0.2867
     90  CB        81.9050   31.0880   22.5570 C.3   338  PHE338      0.0534
     91  CG        81.5420   29.9850   23.5070 C.ar  338  PHE338     -0.0203
     92  CD1       82.4480   28.9750   23.8060 C.ar  338  PHE338     -0.0042
     93  CD2       80.2710   29.9430   24.0840 C.ar  338  PHE338     -0.0042
     94  CE1       82.0940   27.9330   24.6630 C.ar  338  PHE338     -0.0003
     95  CE2       79.9040   28.9080   24.9420 C.ar  338  PHE338     -0.0003
     96  CZ        80.8170   27.9000   25.2320 C.ar  338  PHE338     -0.0000
     97  N         80.9680   39.1030   23.8970 N.3   362  PHE362     -0.1241
     98  CA        80.9190   37.8780   23.1110 C.3   362  PHE362      0.1605
     99  C         79.5460   37.6740   22.4990 C.2   362  PHE362      0.2264
    100  O         78.5600   37.5250   23.2170 O.2   362  PHE362     -0.2867
    101  CB        81.2040   36.6360   23.9700 C.3   362  PHE362      0.0534
    102  CG        82.6600   36.3490   24.1810 C.ar  362  PHE362     -0.0203
    103  CD1       83.3640   36.9670   25.2060 C.ar  362  PHE362     -0.0042
    104  CD2       83.3230   35.4350   23.3610 C.ar  362  PHE362     -0.0042
    105  CE1       84.7140   36.6790   25.4190 C.ar  362  PHE362     -0.0003
    106  CE2       84.6620   35.1400   23.5620 C.ar  362  PHE362     -0.0003
    107  CZ        85.3620   35.7630   24.5960 C.ar  362  PHE362     -0.0000
    108  N         88.7690   21.4790   22.8840 N.3   449  GLY449     -0.1210
    109  CA        88.7640   22.6610   22.0360 C.3   449  GLY449      0.1956
    110  C         87.7050   23.7000   22.3540 C.2   449  GLY449      0.2611
    111  O         86.7430   23.4360   23.0800 O.2   449  GLY449     -0.2717
    112  N         87.8820   24.8960   21.8030 N.am  450  VAL450     -0.1979
    113  CA        86.9280   25.9750   22.0200 C.3   450  VAL450      0.1595
    114  C         85.8580   25.9690   20.9350 C.2   450  VAL450      0.2287
    115  O         84.7440   26.4320   21.1510 O.2   450  VAL450     -0.2864
    116  CB        87.6490   27.3420   22.0610 C.3   450  VAL450      0.0276
    117  CG1       86.6660   28.4750   21.8890 C.3   450  VAL450      0.0022
    118  CG2       88.3520   27.4900   23.3930 C.3   450  VAL450      0.0022
@<TRIPOS>BOND
     1    86    87    1
     2    88    89    2
     3    88    87    1
     4   114   115    2
     5   114   113    1
     6    87    90    1
     7    36    34    1
     8   112   113    1
     9   112   110   am
    10   117   116    1
    11   113   116    1
    12   109   110    1
    13   109   108    1
    14   116   118    1
    15   110   111    2
    16    34    33    2
    17    34    35    1
    18    99    98    1
    19    99   100    2
    20    90    91    1
    21    33    32    1
    22    98    97    1
    23    98   101    1
    24   104   106   ar
    25   104   102   ar
    26    32    31    1
    27    91    92   ar
    28    91    93   ar
    29   106   107   ar
    30    92    94   ar
    31   101   102    1
    32    93    95   ar
    33   102   103   ar
    34   107   105   ar
    35    94    96   ar
    36    31    30    1
    37    95    96   ar
    38   103   105   ar
    39    30    27    1
    40    27    26    1
    41    27    28    1
    42    26    20   am
    43    28    29    2
    44    77    76    1
    45    44    42    1
    46    43    42    1
    47    17    16    1
    48    20    19    1
    49    20    21    2
    50    25    23   ar
    51    85    83    1
    52    19    18    1
    53    19    22    1
    54    42    41    1
    55    41    38    1
    56    24    23   ar
    57    23    22    1
    58    39    40    2
    59    39    38    1
    60    76    78    1
    61    76    73    1
    62    74    73    1
    63    74    75    2
    64    18    12   am
    65    73    72    1
    66    16    15    1
    67    83    84    1
    68    83    80    1
    69    38    37    1
    70    71    69    1
    71    12    13    2
    72    12    11    1
    73    79    80    1
    74    80    81    1
    75    11    14    1
    76    11    10    1
    77    15    14    1
    78    51    49    1
    79    69    68    1
    80    69    70    1
    81     4     3    2
    82    68    65    1
    83    10     3   am
    84    81    82    2
    85     3     2    1
    86    50    49    1
    87    45    46    1
    88    48    47    2
    89    49    46    1
    90    46    47    1
    91    47    52   am
    92     5     2    1
    93     5     6    1
    94    65    64    1
    95    65    66    1
    96    64    54   am
    97     2     1    1
    98     8     7    2
    99    67    66    2
   100     7     6    1
   101     7     9   am
   102    54    53    1
   103    54    55    2
   104    52    53    1
   105    53    56    1
   106    56    57    1
   107    57    59   ar
   108    57    58   ar
   109    59    61   ar
   110    58    60   ar
   111    61    62   ar
   112    60    62   ar
   113    62    63    1
