@<TRIPOS>MOLECULE
tmp/2bdmA07.pdb
 177 172 0 0 0
SMALL
GASTEIGER

@<TRIPOS>ATOM
      1  N         76.4910   36.8780   37.5500 N.3     7  PRO7       -0.2102
      2  CA        77.1220   36.3980   38.7810 C.3     7  PRO7        0.1504
      3  C         78.2790   37.2710   39.2380 C.2     7  PRO7        0.2576
      4  O         78.8710   38.0070   38.4500 O.2     7  PRO7       -0.2718
      5  CB        77.5660   34.9850   38.4140 C.3     7  PRO7        0.0282
      6  CG        77.8440   35.0900   36.9510 C.3     7  PRO7        0.0208
      7  CD        76.6850   35.9190   36.4480 C.3     7  PRO7        0.0893
      8  N         78.5890   37.1890   40.5230 N.am    8  SER8       -0.1939
      9  CA        79.6740   37.9650   41.1010 C.3     8  SER8        0.2040
     10  C         81.0180   37.3160   40.8070 C.2     8  SER8        0.2485
     11  O         81.0990   36.1070   40.6110 O.2     8  SER8       -0.2729
     12  CB        79.4930   38.0610   42.6180 C.3     8  SER8        0.2129
     13  OG        80.6300   38.6430   43.2360 O.3     8  SER8       -0.2179
     14  N         82.0920   38.1200   40.7620 N.am    9  PRO9       -0.2715
     15  CA        83.4260   37.5750   40.4990 C.3     9  PRO9        0.1536
     16  C         83.8750   36.7290   41.6920 C.2     9  PRO9        0.2598
     17  O         84.6560   35.7890   41.5490 O.2     9  PRO9       -0.2715
     18  CB        84.2860   38.8280   40.3140 C.3     9  PRO9        0.0310
     19  CG        83.5830   39.8600   41.1470 C.3     9  PRO9        0.0237
     20  CD        82.1250   39.5920   40.8410 C.3     9  PRO9        0.0939
     21  N         83.3620   37.0790   42.8690 N.am   10  LEU10      -0.1964
     22  CA        83.6780   36.3700   44.1040 C.3    10  LEU10       0.1713
     23  C         82.7870   35.1310   44.2250 C.2    10  LEU10       0.2458
     24  O         81.7190   35.0630   43.6140 O.2    10  LEU10      -0.2730
     25  CB        83.4470   37.2910   45.3040 C.3    10  LEU10       0.0310
     26  CG        84.2250   38.6100   45.3020 C.3    10  LEU10       0.0022
     27  CD1       83.7200   39.5030   46.4230 C.3    10  LEU10       0.0001
     28  CD2       85.7150   38.3340   45.4550 C.3    10  LEU10       0.0001
     29  N         83.2190   34.1300   45.0130 N.am   11  PRO11      -0.2727
     30  CA        84.4690   34.0910   45.7800 C.3    11  PRO11       0.1402
     31  C         85.6770   33.7900   44.8980 C.2    11  PRO11       0.2269
     32  O         85.5380   33.2760   43.7860 O.2    11  PRO11      -0.2865
     33  CB        84.2070   32.9800   46.7850 C.3    11  PRO11       0.0296
     34  CG        83.4160   32.0090   45.9670 C.3    11  PRO11       0.0237
     35  CD        82.4250   32.9120   45.2540 C.3    11  PRO11       0.0939
     36  N         86.7270   30.0060   44.3510 N.3    14  GLY14      -0.1210
     37  CA        85.7020   29.2500   43.6490 C.3    14  GLY14       0.1956
     38  C         86.1630   28.6220   42.3450 C.2    14  GLY14       0.2611
     39  O         85.6010   28.8980   41.2840 O.2    14  GLY14      -0.2717
     40  N         87.1810   27.7690   42.4310 N.am   15  ASN15      -0.1974
     41  CA        87.7420   27.0820   41.2700 C.3    15  ASN15       0.1688
     42  C         87.7570   27.9100   39.9900 C.2    15  ASN15       0.2292
     43  O         86.7850   27.9210   39.2300 O.2    15  ASN15      -0.2864
     44  CB        86.9980   25.7700   41.0180 C.3    15  ASN15       0.1181
     45  CG        87.8660   24.5550   41.2720 C.2    15  ASN15       0.2629
     46  OD1       88.3270   24.3300   42.3910 O.2    15  ASN15      -0.2716
     47  ND2       88.1010   23.7670   40.2290 N.am   15  ASN15      -0.0877
     48  N         87.7970   26.6520   34.9280 N.3    18  GLN18      -0.1245
     49  CA        86.6970   26.2230   34.0700 C.3    18  GLN18       0.1566
     50  C         87.3560   25.7290   32.7880 C.2    18  GLN18       0.2260
     51  O         88.0100   26.5030   32.0880 O.2    18  GLN18      -0.2867
     52  CB        85.7670   27.4000   33.7620 C.3    18  GLN18       0.0367
     53  CG        85.6720   28.4190   34.8860 C.3    18  GLN18       0.0905
     54  CD        86.5270   29.6460   34.6270 C.2    18  GLN18       0.2608
     55  OE1       86.0550   30.6410   34.0790 O.2    18  GLN18      -0.2717
     56  NE2       87.7960   29.5750   35.0050 N.am   18  GLN18      -0.0878
     57  N         80.4380   21.2750   30.3690 N.3    23  GLY23      -0.1210
     58  CA        80.1110   21.8770   31.6490 C.3    23  GLY23       0.1956
     59  C         80.0190   23.3880   31.5420 C.2    23  GLY23       0.2611
     60  O         79.4610   24.0540   32.4170 O.2    23  GLY23      -0.2717
     61  N         80.5760   23.9310   30.4640 N.am   24  LEU24      -0.1979
     62  CA        80.5500   25.3670   30.2370 C.3    24  LEU24       0.1596
     63  C         79.2130   25.7030   29.5880 C.2    24  LEU24       0.2287
     64  O         78.6890   26.8050   29.7460 O.2    24  LEU24      -0.2864
     65  CB        81.7110   25.7760   29.3320 C.3    24  LEU24       0.0297
     66  CG        82.0690   27.2610   29.2860 C.3    24  LEU24       0.0022
     67  CD1       83.4520   27.4300   28.6880 C.3    24  LEU24       0.0001
     68  CD2       81.0350   28.0170   28.4810 C.3    24  LEU24       0.0001
     69  N         76.7150   25.6700   32.3550 N.3    27  SER27      -0.1202
     70  CA        76.8220   26.9160   33.0920 C.3    27  SER27       0.2020
     71  C         76.2200   28.0540   32.2760 C.2    27  SER27       0.2618
     72  O         75.4880   28.8940   32.8040 O.2    27  SER27      -0.2717
     73  CB        78.2890   27.2070   33.4070 C.3    27  SER27       0.2103
     74  OG        78.3960   28.2590   34.3490 O.3    27  SER27      -0.2182
     75  N         76.5290   28.0750   30.9850 N.am   28  PHE28      -0.1975
     76  CA        76.0080   29.1050   30.0970 C.3    28  PHE28       0.1639
     77  C         74.4790   29.1050   30.1070 C.2    28  PHE28       0.2290
     78  O         73.8500   30.1520   30.2850 O.2    28  PHE28      -0.2864
     79  CB        76.5050   28.8720   28.6690 C.3    28  PHE28       0.0560
     80  CG        75.8890   29.7990   27.6560 C.ar   28  PHE28      -0.0200
     81  CD1       76.3230   31.1140   27.5400 C.ar   28  PHE28      -0.0042
     82  CD2       74.8490   29.3610   26.8360 C.ar   28  PHE28      -0.0042
     83  CE1       75.7290   31.9820   26.6230 C.ar   28  PHE28      -0.0003
     84  CE2       74.2470   30.2190   25.9160 C.ar   28  PHE28      -0.0003
     85  CZ        74.6870   31.5330   25.8100 C.ar   28  PHE28      -0.0000
     86  N         72.4130   27.9110   32.3000 N.3    30  ARG30      -0.1231
     87  CA        71.8940   28.2890   33.6030 C.3    30  ARG30       0.1694
     88  C         71.8860   29.8240   33.7240 C.2    30  ARG30       0.2591
     89  O         70.8670   30.4250   34.0860 O.2    30  ARG30      -0.2718
     90  CB        72.7560   27.6400   34.6970 C.3    30  ARG30       0.0321
     91  CG        72.1910   27.7070   36.1150 C.3    30  ARG30       0.0489
     92  CD        73.0190   28.6390   36.9910 C.3    30  ARG30       0.2205
     93  NE        74.4460   28.3360   36.8970 N.pl3  30  ARG30      -0.0865
     94  CZ        75.4110   29.1010   37.3980 C.cat  30  ARG30       0.5346
     95  NH1       75.1060   30.2250   38.0370 N.pl3  30  ARG30       0.1354
     96  NH2       76.6810   28.7490   37.2450 N.pl3  30  ARG30       0.1354
     97  N         73.0130   30.4540   33.3950 N.am   31  LEU31      -0.1980
     98  CA        73.1300   31.9110   33.4660 C.3    31  LEU31       0.1596
     99  C         72.1000   32.6290   32.5960 C.2    31  LEU31       0.2287
    100  O         71.4770   33.6000   33.0280 O.2    31  LEU31      -0.2864
    101  CB        74.5340   32.3530   33.0520 C.3    31  LEU31       0.0297
    102  CG        75.6670   31.8810   33.9590 C.3    31  LEU31       0.0022
    103  CD1       77.0000   32.2810   33.3510 C.3    31  LEU31       0.0001
    104  CD2       75.5000   32.4830   35.3460 C.3    31  LEU31       0.0001
    105  N         73.9240   39.2220   29.7060 N.3    39  PHE39      -0.1241
    106  CA        74.4770   39.1910   31.0460 C.3    39  PHE39       0.1605
    107  C         75.9770   39.4060   31.0620 C.2    39  PHE39       0.2264
    108  O         76.6420   39.3820   30.0250 O.2    39  PHE39      -0.2867
    109  CB        74.1310   37.8800   31.7590 C.3    39  PHE39       0.0534
    110  CG        74.6370   36.6460   31.0660 C.ar   39  PHE39      -0.0203
    111  CD1       73.8640   36.0060   30.0980 C.ar   39  PHE39      -0.0042
    112  CD2       75.8740   36.0960   31.4120 C.ar   39  PHE39      -0.0042
    113  CE1       74.3110   34.8320   29.4860 C.ar   39  PHE39      -0.0003
    114  CE2       76.3320   34.9200   30.8040 C.ar   39  PHE39      -0.0003
    115  CZ        75.5450   34.2880   29.8390 C.ar   39  PHE39      -0.0000
    116  N         79.6680   38.2550   32.8630 N.3    41  VAL41      -0.1231
    117  CA        80.3920   37.2380   33.6180 C.3    41  VAL41       0.1692
    118  C         81.8070   37.7790   33.7400 C.2    41  VAL41       0.2592
    119  O         82.2490   38.5630   32.9040 O.2    41  VAL41      -0.2718
    120  CB        80.4340   35.8620   32.9040 C.3    41  VAL41       0.0266
    121  CG1       79.0470   35.2560   32.8620 C.3    41  VAL41       0.0020
    122  CG2       80.9830   36.0130   31.5000 C.3    41  VAL41       0.0020
    123  N         82.5150   37.3730   34.7830 N.am   42  TYR42      -0.1976
    124  CA        83.8720   37.8470   34.9910 C.3    42  TYR42       0.1639
    125  C         84.9540   36.8260   34.6890 C.2    42  TYR42       0.2290
    126  O         84.8150   35.6490   35.0030 O.2    42  TYR42      -0.2864
    127  CB        84.0440   38.3350   36.4340 C.3    42  TYR42       0.0560
    128  CG        83.4380   39.6980   36.6790 C.ar   42  TYR42      -0.0198
    129  CD1       82.0570   39.8610   36.8150 C.ar   42  TYR42      -0.0009
    130  CD2       84.2430   40.8380   36.7070 C.ar   42  TYR42      -0.0009
    131  CE1       81.4960   41.1310   36.9700 C.ar   42  TYR42       0.0417
    132  CE2       83.6960   42.1070   36.8540 C.ar   42  TYR42       0.0417
    133  CZ        82.3230   42.2480   36.9840 C.ar   42  TYR42       0.1957
    134  OH        81.7890   43.5120   37.1100 O.3    42  TYR42      -0.2866
    135  N         82.9420   40.7370   31.2860 N.3    48  VAL48      -0.1245
    136  CA        82.7650   40.3490   29.8970 C.3    48  VAL48       0.1561
    137  C         81.2700   40.2470   29.6870 C.2    48  VAL48       0.2260
    138  O         80.5820   39.5700   30.4520 O.2    48  VAL48      -0.2867
    139  CB        83.4230   38.9760   29.5950 C.3    48  VAL48       0.0252
    140  CG1       83.1070   38.5440   28.1750 C.3    48  VAL48       0.0019
    141  CG2       84.9300   39.0710   29.7730 C.3    48  VAL48       0.0019
    142  N         77.9800   39.0980   27.5680 N.3    50  VAL50      -0.1245
    143  CA        77.5810   37.9920   26.7060 C.3    50  VAL50       0.1561
    144  C         76.2270   38.2610   26.0610 C.2    50  VAL50       0.2260
    145  O         75.2550   38.5320   26.7580 O.2    50  VAL50      -0.2867
    146  CB        77.4690   36.6670   27.5300 C.3    50  VAL50       0.0252
    147  CG1       77.0770   35.4980   26.6210 C.3    50  VAL50       0.0019
    148  CG2       78.7780   36.3880   28.2430 C.3    50  VAL50       0.0019
    149  N         80.8220   30.1570   20.5910 N.3   338  PHE338     -0.1241
    150  CA        80.8530   31.3140   21.4710 C.3   338  PHE338      0.1605
    151  C         81.0820   32.6450   20.7790 C.2   338  PHE338      0.2264
    152  O         80.9750   33.6980   21.4100 O.2   338  PHE338     -0.2867
    153  CB        81.9050   31.0880   22.5570 C.3   338  PHE338      0.0534
    154  CG        81.5420   29.9850   23.5070 C.ar  338  PHE338     -0.0203
    155  CD1       82.4480   28.9750   23.8060 C.ar  338  PHE338     -0.0042
    156  CD2       80.2710   29.9430   24.0840 C.ar  338  PHE338     -0.0042
    157  CE1       82.0940   27.9330   24.6630 C.ar  338  PHE338     -0.0003
    158  CE2       79.9040   28.9080   24.9420 C.ar  338  PHE338     -0.0003
    159  CZ        80.8170   27.9000   25.2320 C.ar  338  PHE338     -0.0000
    160  N         80.9680   39.1030   23.8970 N.3   362  PHE362     -0.1241
    161  CA        80.9190   37.8780   23.1110 C.3   362  PHE362      0.1605
    162  C         79.5460   37.6740   22.4990 C.2   362  PHE362      0.2264
    163  O         78.5600   37.5250   23.2170 O.2   362  PHE362     -0.2867
    164  CB        81.2040   36.6360   23.9700 C.3   362  PHE362      0.0534
    165  CG        82.6600   36.3490   24.1810 C.ar  362  PHE362     -0.0203
    166  CD1       83.3640   36.9670   25.2060 C.ar  362  PHE362     -0.0042
    167  CD2       83.3230   35.4350   23.3610 C.ar  362  PHE362     -0.0042
    168  CE1       84.7140   36.6790   25.4190 C.ar  362  PHE362     -0.0003
    169  CE2       84.6620   35.1400   23.5620 C.ar  362  PHE362     -0.0003
    170  CZ        85.3620   35.7630   24.5960 C.ar  362  PHE362     -0.0000
    171  N         77.3590   35.2620   21.2790 N.3   364  VAL364     -0.1245
    172  CA        77.3220   33.8070   21.2120 C.3   364  VAL364      0.1561
    173  C         76.5610   33.2840   20.0010 C.2   364  VAL364      0.2260
    174  O         75.3920   32.9220   20.0840 O.2   364  VAL364     -0.2867
    175  CB        76.7560   33.2400   22.5280 C.3   364  VAL364      0.0252
    176  CG1       76.7450   31.7290   22.4980 C.3   364  VAL364      0.0019
    177  CG2       77.6200   33.7310   23.6910 C.3   364  VAL364      0.0019
@<TRIPOS>BOND
     1   173   174    2
     2   173   172    1
     3   149   150    1
     4   151   152    2
     5   151   150    1
     6   172   171    1
     7   172   175    1
     8   150   153    1
     9   176   175    1
    10   162   161    1
    11   162   163    2
    12   175   177    1
    13   153   154    1
    14   161   160    1
    15   161   164    1
    16   167   169   ar
    17   167   165   ar
    18   154   155   ar
    19   154   156   ar
    20   169   170   ar
    21   155   157   ar
    22   164   165    1
    23   156   158   ar
    24   165   166   ar
    25   170   168   ar
    26   157   159   ar
    27   158   159   ar
    28   166   168   ar
    29    85    84   ar
    30    85    83   ar
    31    84    82   ar
    32   144   143    1
    33   144   145    2
    34   147   146    1
    35    83    81   ar
    36   143   146    1
    37   143   142    1
    38    82    80   ar
    39   146   148    1
    40    81    80   ar
    41    80    79    1
    42   140   139    1
    43    68    66    1
    44    79    76    1
    45    67    66    1
    46    66    65    1
    47    65    62    1
    48   113   115   ar
    49   113   111   ar
    50    63    64    2
    51    63    62    1
    52   139   141    1
    53   139   136    1
    54   137   136    1
    55   137   138    2
    56   105   106    1
    57   115   114   ar
    58   136   135    1
    59   108   107    2
    60    76    77    1
    61    76    75    1
    62   111   110   ar
    63    77    78    2
    64    62    61    1
    65    57    58    1
    66    61    59   am
    67   114   112   ar
    68    75    71   am
    69   106   107    1
    70   106   109    1
    71   110   112   ar
    72   110   109    1
    73   122   120    1
    74    59    58    1
    75    59    60    2
    76    51    50    2
    77    71    72    2
    78    71    70    1
    79    86    87    1
    80    69    70    1
    81    99   100    2
    82    99    98    1
    83    50    49    1
    84   121   120    1
    85   116   117    1
    86   120   117    1
    87   119   118    2
    88   101    98    1
    89   101   102    1
    90    70    73    1
    91   103   102    1
    92    97    98    1
    93    97    88   am
    94    73    74    1
    95    87    88    1
    96    87    90    1
    97   117   118    1
    98    88    89    2
    99   118   123   am
   100    52    49    1
   101    52    53    1
   102   102   104    1
   103    49    48    1
   104    55    54    2
   105    54    53    1
   106    54    56   am
   107   125   124    1
   108   125   126    2
   109    90    91    1
   110   123   124    1
   111   124   127    1
   112    91    92    1
   113   127   128    1
   114     7     6    1
   115     7     1    1
   116   128   130   ar
   117   128   129   ar
   118   130   132   ar
   119   129   131   ar
   120   132   133   ar
   121    93    92    1
   122    93    94    2
   123     6     5    1
   124   131   133   ar
   125   133   134    1
   126    96    94    1
   127    94    95    1
   128     1     2    1
   129     5     2    1
   130     4     3    2
   131     2     3    1
   132    43    42    2
   133     3     8   am
   134    42    41    1
   135    47    45   am
   136    18    15    1
   137    18    19    1
   138    15    14    1
   139    15    16    1
   140     8     9    1
   141    11    10    2
   142    14    10   am
   143    14    20    1
   144    10     9    1
   145    20    19    1
   146    44    41    1
   147    44    45    1
   148     9    12    1
   149    41    40    1
   150    45    46    2
   151    39    38    2
   152    17    16    2
   153    16    21   am
   154    38    40   am
   155    38    37    1
   156    12    13    1
   157    21    22    1
   158    24    23    2
   159    37    36    1
   160    32    31    2
   161    22    23    1
   162    22    25    1
   163    23    29   am
   164    31    30    1
   165    29    35    1
   166    29    30    1
   167    35    34    1
   168    26    25    1
   169    26    28    1
   170    26    27    1
   171    30    33    1
   172    34    33    1
