@<TRIPOS>MOLECULE
tmp/2bdmA01.pdb
 86 78 0 0 0
SMALL
GASTEIGER

@<TRIPOS>ATOM
      1  N         98.6170   41.6870    6.2030 N.3   101  SER101     -0.1217
      2  CA        97.4630   40.8040    6.1080 C.3   101  SER101      0.1889
      3  C         96.4990   41.2620    5.0300 C.2   101  SER101      0.2288
      4  O         96.0840   40.4680    4.1760 O.2   101  SER101     -0.2866
      5  CB        96.7330   40.7220    7.4470 C.3   101  SER101      0.2089
      6  OG        97.5550   40.1380    8.4380 O.3   101  SER101     -0.2183
      7  N         95.8800   39.7510    1.3330 N.3   105  MET105     -0.1245
      8  CA        94.5100   39.3520    1.0640 C.3   105  MET105      0.1570
      9  C         94.0810   39.9180   -0.3030 C.2   105  MET105      0.2261
     10  O         93.4220   39.2370   -1.0960 O.2   105  MET105     -0.2867
     11  CB        93.6090   39.8650    2.1880 C.3   105  MET105      0.0387
     12  CG        92.5200   38.9060    2.6090 C.3   105  MET105      0.0595
     13  SD        91.8840   39.3420    4.2420 S.3   105  MET105     -0.1393
     14  CE        92.7900   38.2070    5.2920 C.3   105  MET105      0.0692
     15  N        102.1650   35.6910    8.0070 N.3   265  VAL265     -0.1245
     16  CA       100.8730   35.9360    7.3950 C.3   265  VAL265      0.1561
     17  C        100.4210   34.7090    6.5950 C.2   265  VAL265      0.2260
     18  O         99.2560   34.3240    6.6560 O.2   265  VAL265     -0.2867
     19  CB       100.9310   37.1860    6.4870 C.3   265  VAL265      0.0252
     20  CG1       99.6580   37.3080    5.6670 C.3   265  VAL265      0.0019
     21  CG2      101.1170   38.4340    7.3510 C.3   265  VAL265      0.0019
     22  N         98.9810   32.1590    8.8940 N.3   268  LEU268     -0.1231
     23  CA        97.6070   32.4280    9.3060 C.3   268  LEU268      0.1693
     24  C         96.6510   31.9960    8.1940 C.2   268  LEU268      0.2592
     25  O         95.5980   31.4150    8.4630 O.2   268  LEU268     -0.2718
     26  CB        97.4250   33.9130    9.6500 C.3   268  LEU268      0.0284
     27  CG        98.3220   34.3560   10.8170 C.3   268  LEU268      0.0019
     28  CD1       98.2810   35.8810   10.9690 C.3   268  LEU268      0.0001
     29  CD2       97.8730   33.6620   12.1040 C.3   268  LEU268      0.0001
     30  N         97.0110   32.2750    6.9460 N.am  269  PHE269     -0.1976
     31  CA        96.1690   31.8470    5.8320 C.3   269  PHE269      0.1639
     32  C         95.9860   30.3190    5.8920 C.2   269  PHE269      0.2290
     33  O         94.8680   29.8180    5.7710 O.2   269  PHE269     -0.2864
     34  CB        96.8060   32.2410    4.4950 C.3   269  PHE269      0.0560
     35  CG        96.3790   33.5960    3.9890 C.ar  269  PHE269     -0.0200
     36  CD1       95.1260   33.7720    3.4080 C.ar  269  PHE269     -0.0042
     37  CD2       97.2300   34.6940    4.0920 C.ar  269  PHE269     -0.0042
     38  CE1       94.7270   35.0200    2.9350 C.ar  269  PHE269     -0.0003
     39  CE2       96.8410   35.9470    3.6220 C.ar  269  PHE269     -0.0003
     40  CZ        95.5880   36.1110    3.0420 C.ar  269  PHE269     -0.0000
     41  N         96.2530   28.2690    8.4700 N.3   271  ALA271     -0.1231
     42  CA        95.4390   27.8980    9.6190 C.3   271  ALA271      0.1694
     43  C         93.9610   28.1440    9.3210 C.2   271  ALA271      0.2592
     44  O         93.0940   27.3370    9.6770 O.2   271  ALA271     -0.2718
     45  CB        95.8700   28.6940   10.8450 C.3   271  ALA271      0.0304
     46  N         93.6840   29.2670    8.6660 N.am  272  GLY272     -0.1957
     47  CA        92.3190   29.6080    8.3210 C.3   272  GLY272      0.1869
     48  C         91.6030   28.6000    7.4340 C.2   272  GLY272      0.2309
     49  O         90.3700   28.5290    7.4490 O.2   272  GLY272     -0.2863
     50  N         91.3740   25.6650    7.9270 N.3   274  GLU274     -0.1231
     51  CA        90.7880   24.6340    8.7660 C.3   274  GLU274      0.1699
     52  C         89.2970   24.7830    9.0420 C.2   274  GLU274      0.2592
     53  O         88.6070   23.7840    9.2710 O.2   274  GLU274     -0.2718
     54  CB        91.5400   24.5250   10.0860 C.3   274  GLU274      0.0402
     55  CG        91.5530   23.1140   10.6090 C.3   274  GLU274      0.1161
     56  CD        92.5120   22.9270   11.7520 C.2   274  GLU274      0.3649
     57  OE1       92.9620   21.7840   11.9500 O.co2 274  GLU274     -0.2457
     58  OE2       92.8090   23.9140   12.4560 O.co2 274  GLU274     -0.2457
     59  N         88.7870   26.0130    9.0310 N.am  275  THR275     -0.1953
     60  CA        87.3640   26.2080    9.2810 C.3   275  THR275      0.1897
     61  C         86.5550   25.6150    8.1360 C.2   275  THR275      0.2313
     62  O         85.5230   24.9790    8.3550 O.2   275  THR275     -0.2863
     63  CB        87.0060   27.7000    9.4280 C.3   275  THR275      0.1794
     64  OG1       87.4730   28.4190    8.2810 O.3   275  THR275     -0.2208
     65  CG2       87.6520   28.2800   10.6790 C.3   275  THR275      0.0378
     66  N         82.0900   28.1200   15.5450 N.3   336  ILE336     -0.1245
     67  CA        82.5530   29.0010   16.5980 C.3   336  ILE336      0.1561
     68  C         81.3380   29.3410   17.4460 C.2   336  ILE336      0.2260
     69  O         80.7830   30.4310   17.3650 O.2   336  ILE336     -0.2867
     70  CB        83.1980   30.2410   15.9660 C.3   336  ILE336      0.0252
     71  CG1       84.2010   29.7790   14.8950 C.3   336  ILE336      0.0019
     72  CG2       83.8970   31.0680   17.0310 C.3   336  ILE336      0.0019
     73  CD1       84.9360   30.8860   14.1760 C.3   336  ILE336      0.0001
     74  N         83.4700   35.2760   18.2340 N.3   340  VAL340     -0.1245
     75  CA        84.7750   35.8640   18.4360 C.3   340  VAL340      0.1561
     76  C         84.4990   37.1420   19.2290 C.2   340  VAL340      0.2260
     77  O         83.6130   37.9230   18.8770 O.2   340  VAL340     -0.2867
     78  CB        85.4280   36.1790   17.0860 C.3   340  VAL340      0.0252
     79  CG1       86.7760   36.8630   17.2930 C.3   340  VAL340      0.0019
     80  CG2       85.6020   34.8840   16.3040 C.3   340  VAL340      0.0019
     81  N         83.4720   38.1420    9.0250 N.3   409  CYS409     -0.1235
     82  CA        84.5540   37.3540    8.4250 C.3   409  CYS409      0.1677
     83  C         85.0350   37.8290    7.0530 C.2   409  CYS409      0.2270
     84  O         84.2830   37.8420    6.0780 O.2   409  CYS409     -0.2867
     85  CB        84.1390   35.8770    8.3280 C.3   409  CYS409      0.0956
     86  SG        85.3690   34.7850    7.5230 S.3   409  CYS409     -0.0801
@<TRIPOS>BOND
     1    10     9    2
     2     9     8    1
     3     8     7    1
     4     8    11    1
     5    11    12    1
     6    12    13    1
     7    38    40   ar
     8    38    36   ar
     9    40    39   ar
    10    36    35   ar
    11    39    37   ar
    12    35    37   ar
    13    35    34    1
    14     4     3    2
    15    13    14    1
    16    34    31    1
    17     3     2    1
    18    20    19    1
    19    33    32    2
    20    31    32    1
    21    31    30    1
    22    84    83    2
    23     2     1    1
    24     2     5    1
    25    19    21    1
    26    19    16    1
    27    17    18    2
    28    17    16    1
    29    30    24   am
    30    83    82    1
    31    16    15    1
    32    48    49    2
    33    48    47    1
    34     5     6    1
    35    86    85    1
    36    50    51    1
    37    61    62    2
    38    61    60    1
    39    24    25    2
    40    24    23    1
    41    64    63    1
    42    47    46    1
    43    85    82    1
    44    82    81    1
    45    41    42    1
    46    46    43   am
    47    51    52    1
    48    51    54    1
    49    22    23    1
    50    59    52   am
    51    59    60    1
    52    52    53    2
    53    60    63    1
    54    23    26    1
    55    43    42    1
    56    43    44    2
    57    63    65    1
    58    42    45    1
    59    26    27    1
    60    54    55    1
    61    55    56    1
    62    27    28    1
    63    27    29    1
    64    56    57   ar
    65    56    58   ar
    66    73    71    1
    67    71    70    1
    68    66    67    1
    69    70    67    1
    70    70    72    1
    71    80    78    1
    72    67    68    1
    73    78    79    1
    74    78    75    1
    75    69    68    2
    76    74    75    1
    77    75    76    1
    78    77    76    2
