@<TRIPOS>MOLECULE
tmp/2bdmA02.pdb
 144 136 0 0 0
SMALL
GASTEIGER

@<TRIPOS>ATOM
      1  N        100.3390   30.6900   -4.1330 N.3   156  VAL156     -0.1231
      2  CA       101.6930   31.0870   -3.7850 C.3   156  VAL156      0.1692
      3  C        102.7580   30.5910   -4.7560 C.2   156  VAL156      0.2592
      4  O        103.5360   31.3830   -5.2880 O.2   156  VAL156     -0.2718
      5  CB       102.0560   30.6080   -2.3590 C.3   156  VAL156      0.0266
      6  CG1      103.5480   30.7880   -2.1010 C.3   156  VAL156      0.0020
      7  CG2      101.2450   31.3910   -1.3380 C.3   156  VAL156      0.0020
      8  N        102.7870   29.2830   -4.9910 N.am  157  PHE157     -0.1976
      9  CA       103.7920   28.6970   -5.8720 C.3   157  PHE157      0.1639
     10  C        103.4390   28.6330   -7.3510 C.2   157  PHE157      0.2290
     11  O        104.3080   28.3850   -8.1830 O.2   157  PHE157     -0.2864
     12  CB       104.1620   27.2990   -5.3750 C.3   157  PHE157      0.0560
     13  CG       104.6530   27.2770   -3.9560 C.ar  157  PHE157     -0.0200
     14  CD1      103.8670   26.7370   -2.9400 C.ar  157  PHE157     -0.0042
     15  CD2      105.9000   27.8060   -3.6320 C.ar  157  PHE157     -0.0042
     16  CE1      104.3180   26.7230   -1.6240 C.ar  157  PHE157     -0.0003
     17  CE2      106.3590   27.7990   -2.3190 C.ar  157  PHE157     -0.0003
     18  CZ       105.5670   27.2560   -1.3130 C.ar  157  PHE157     -0.0000
     19  N        103.9410   19.8370    5.1730 N.3   171  LEU171     -0.1245
     20  CA       103.3100   21.1380    5.3500 C.3   171  LEU171      0.1561
     21  C        101.9950   20.9620    6.1280 C.2   171  LEU171      0.2260
     22  O        101.7290   21.6670    7.1020 O.2   171  LEU171     -0.2867
     23  CB       103.0460   21.7330    3.9690 C.3   171  LEU171      0.0270
     24  CG       103.0880   23.2350    3.7120 C.3   171  LEU171      0.0019
     25  CD1      104.3440   23.8390    4.3060 C.3   171  LEU171      0.0001
     26  CD2      103.0570   23.4640    2.2060 C.3   171  LEU171      0.0001
     27  N        102.8610   20.2530    9.6500 N.3   174  LEU174     -0.1231
     28  CA       103.3540   21.4160   10.3790 C.3   174  LEU174      0.1693
     29  C        102.2030   22.2500   10.9370 C.2   174  LEU174      0.2592
     30  O        102.1950   22.6030   12.1170 O.2   174  LEU174     -0.2718
     31  CB       104.2070   22.2900    9.4620 C.3   174  LEU174      0.0284
     32  CG       104.8180   23.5340   10.1110 C.3   174  LEU174      0.0019
     33  CD1      105.9260   23.1150   11.0600 C.3   174  LEU174      0.0001
     34  CD2      105.3570   24.4660    9.0390 C.3   174  LEU174      0.0001
     35  N        101.2230   22.5420   10.0890 N.am  175  PHE175     -0.1976
     36  CA       100.0900   23.3600   10.4960 C.3   175  PHE175      0.1639
     37  C         98.9680   22.6790   11.2670 C.2   175  PHE175      0.2290
     38  O         98.4050   23.2810   12.1840 O.2   175  PHE175     -0.2864
     39  CB        99.4610   24.0320    9.2730 C.3   175  PHE175      0.0560
     40  CG       100.3840   24.9570    8.5470 C.ar  175  PHE175     -0.0200
     41  CD1      100.9410   26.0530    9.1940 C.ar  175  PHE175     -0.0042
     42  CD2      100.7010   24.7340    7.2090 C.ar  175  PHE175     -0.0042
     43  CE1      101.8070   26.9180    8.5190 C.ar  175  PHE175     -0.0003
     44  CE2      101.5630   25.5900    6.5250 C.ar  175  PHE175     -0.0003
     45  CZ       102.1180   26.6830    7.1810 C.ar  175  PHE175     -0.0000
     46  N        103.4970   27.9150   20.7150 N.3   200  PHE200     -0.1241
     47  CA       103.1050   26.8830   19.7770 C.3   200  PHE200      0.1605
     48  C        103.8030   25.5450   20.0030 C.2   200  PHE200      0.2264
     49  O        104.9610   25.4920   20.4170 O.2   200  PHE200     -0.2867
     50  CB       103.2970   27.4030   18.3610 C.3   200  PHE200      0.0534
     51  CG       102.5320   28.6680   18.0970 C.ar  200  PHE200     -0.0203
     52  CD1      103.0860   29.9080   18.3990 C.ar  200  PHE200     -0.0042
     53  CD2      101.2320   28.6190   17.6040 C.ar  200  PHE200     -0.0042
     54  CE1      102.3590   31.0820   18.2150 C.ar  200  PHE200     -0.0003
     55  CE2      100.4960   29.7860   17.4170 C.ar  200  PHE200     -0.0003
     56  CZ       101.0640   31.0210   17.7240 C.ar  200  PHE200     -0.0000
     57  N        109.1530   19.1560   15.0620 N.3   207  ILE207     -0.1245
     58  CA       109.0530   20.1480   14.0020 C.3   207  ILE207      0.1561
     59  C        110.2640   20.3820   13.1030 C.2   207  ILE207      0.2260
     60  O        110.0970   20.6260   11.9080 O.2   207  ILE207     -0.2867
     61  CB       108.6060   21.5060   14.6100 C.3   207  ILE207      0.0252
     62  CG1      107.1950   21.3620   15.1900 C.3   207  ILE207      0.0019
     63  CG2      108.6580   22.6110   13.5670 C.3   207  ILE207      0.0019
     64  CD1      106.1550   20.8360   14.2000 C.3   207  ILE207      0.0001
     65  N        109.7890   21.2920    9.0290 N.3   211  LEU211     -0.1245
     66  CA       110.2420   22.6440    8.7540 C.3   211  LEU211      0.1561
     67  C        111.5010   22.7260    7.8990 C.2   211  LEU211      0.2260
     68  O        111.5990   23.5700    7.0100 O.2   211  LEU211     -0.2867
     69  CB       110.4500   23.3800   10.0750 C.3   211  LEU211      0.0270
     70  CG       110.3990   24.9040   10.0120 C.3   211  LEU211      0.0019
     71  CD1      109.1370   25.3550    9.2790 C.3   211  LEU211      0.0001
     72  CD2      110.4320   25.4530   11.4270 C.3   211  LEU211      0.0001
     73  N        110.6310   21.8510    4.3650 N.3   214  ILE214     -0.1231
     74  CA       109.7290   22.8830    3.8600 C.3   214  ILE214      0.1692
     75  C        110.4840   24.1470    3.4500 C.2   214  ILE214      0.2592
     76  O        110.2090   24.7320    2.4030 O.2   214  ILE214     -0.2718
     77  CB       108.6630   23.2560    4.9230 C.3   214  ILE214      0.0266
     78  CG1      107.7240   22.0660    5.1510 C.3   214  ILE214      0.0019
     79  CG2      107.8820   24.4830    4.4830 C.3   214  ILE214      0.0020
     80  CD1      106.7150   22.2670    6.2670 C.3   214  ILE214      0.0001
     81  N        111.4310   24.5690    4.2800 N.am  215  ASN215     -0.1974
     82  CA       112.2110   25.7650    3.9830 C.3   215  ASN215      0.1688
     83  C        113.0600   25.5750    2.7300 C.2   215  ASN215      0.2292
     84  O        113.1700   26.4740    1.8870 O.2   215  ASN215     -0.2864
     85  CB       113.1070   26.1340    5.1700 C.3   215  ASN215      0.1181
     86  CG       112.3140   26.6420    6.3690 C.2   215  ASN215      0.2629
     87  OD1      111.3860   27.4420    6.2220 O.2   215  ASN215     -0.2716
     88  ND2      112.6880   26.1920    7.5620 N.am  215  ASN215     -0.0877
     89  N        110.8690   26.0190   -0.2380 N.3   218  ILE218     -0.1245
     90  CA       110.5380   27.4200   -0.4710 C.3   218  ILE218      0.1561
     91  C        111.7550   28.1390   -1.0470 C.2   218  ILE218      0.2260
     92  O        111.6500   28.8880   -2.0250 O.2   218  ILE218     -0.2867
     93  CB       110.0970   28.1150    0.8410 C.3   218  ILE218      0.0252
     94  CG1      108.8540   27.4130    1.4010 C.3   218  ILE218      0.0019
     95  CG2      109.8200   29.5950    0.5820 C.3   218  ILE218      0.0019
     96  CD1      108.4270   27.8820    2.7760 C.3   218  ILE218      0.0001
     97  N        109.9630   37.5240    7.3400 N.3   260  ASN260     -0.1240
     98  CA       109.3080   36.6900    8.3310 C.3   260  ASN260      0.1653
     99  C        107.8480   37.0610    8.5360 C.2   260  ASN260      0.2266
    100  O        107.0200   36.1920    8.7840 O.2   260  ASN260     -0.2867
    101  CB       110.0460   36.7300    9.6630 C.3   260  ASN260      0.1155
    102  CG       109.7900   35.4850   10.4820 C.2   260  ASN260      0.2627
    103  OD1      109.9480   34.3720    9.9810 O.2   260  ASN260     -0.2716
    104  ND2      109.3840   35.6590   11.7380 N.am  260  ASN260     -0.0877
    105  N        105.8530   35.2850    5.9630 N.3   263  LEU263     -0.1231
    106  CA       105.6930   33.8790    6.3090 C.3   263  LEU263      0.1693
    107  C        104.6310   33.7330    7.4000 C.2   263  LEU263      0.2592
    108  O        103.7730   32.8510    7.3340 O.2   263  LEU263     -0.2718
    109  CB       107.0240   33.3020    6.7900 C.3   263  LEU263      0.0284
    110  CG       108.0540   33.1350    5.6710 C.3   263  LEU263      0.0019
    111  CD1      109.3980   32.7580    6.2630 C.3   263  LEU263      0.0001
    112  CD2      107.5790   32.0630    4.6890 C.3   263  LEU263      0.0001
    113  N        104.6960   34.6030    8.4040 N.am  264  THR264     -0.1953
    114  CA       103.7330   34.5760    9.4910 C.3   264  THR264      0.1897
    115  C        102.3210   34.7480    8.9320 C.2   264  THR264      0.2313
    116  O        101.3960   34.0280    9.3190 O.2   264  THR264     -0.2863
    117  CB       104.0460   35.6850   10.5060 C.3   264  THR264      0.1794
    118  OG1      105.2400   35.3300   11.2140 O.3   264  THR264     -0.2208
    119  CG2      102.8930   35.8730   11.4960 C.3   264  THR264      0.0378
    120  N        101.3350   34.0870    5.8540 N.3   266  LEU266     -0.1231
    121  CA       100.9660   32.9070    5.0820 C.3   266  LEU266      0.1693
    122  C        100.5440   31.7930    6.0410 C.2   266  LEU266      0.2592
    123  O         99.6270   31.0350    5.7450 O.2   266  LEU266     -0.2718
    124  CB       102.1220   32.4670    4.1740 C.3   266  LEU266      0.0284
    125  CG       102.4700   33.4980    3.0820 C.3   266  LEU266      0.0019
    126  CD1      103.6400   33.0010    2.2510 C.3   266  LEU266      0.0001
    127  CD2      101.2660   33.7580    2.1900 C.3   266  LEU266      0.0001
    128  N        101.1940   31.7130    7.1990 N.am  267  SER267     -0.1952
    129  CA       100.8330   30.7180    8.2020 C.3   267  SER267      0.1924
    130  C         99.3690   30.9120    8.6250 C.2   267  SER267      0.2314
    131  O         98.6030   29.9430    8.7220 O.2   267  SER267     -0.2863
    132  CB       101.7130   30.8610    9.4400 C.3   267  SER267      0.2116
    133  OG       103.0700   30.6940    9.1030 O.3   267  SER267     -0.2180
    134  N         97.0750   29.5770    6.0890 N.3   270  PHE270     -0.1241
    135  CA        96.9650   28.1220    6.1550 C.3   270  PHE270      0.1605
    136  C         96.0800   27.6690    7.2980 C.2   270  PHE270      0.2264
    137  O         95.2530   26.7870    7.1230 O.2   270  PHE270     -0.2867
    138  CB        98.3360   27.4580    6.2900 C.3   270  PHE270      0.0534
    139  CG        99.0480   27.2830    4.9890 C.ar  270  PHE270     -0.0203
    140  CD1      100.0440   28.1810    4.5950 C.ar  270  PHE270     -0.0042
    141  CD2       98.7090   26.2310    4.1370 C.ar  270  PHE270     -0.0042
    142  CE1      100.6960   28.0360    3.3680 C.ar  270  PHE270     -0.0003
    143  CE2       99.3520   26.0740    2.9070 C.ar  270  PHE270     -0.0003
    144  CZ       100.3480   26.9790    2.5210 C.ar  270  PHE270     -0.0000
@<TRIPOS>BOND
     1    11    10    2
     2    10     9    1
     3     9    12    1
     4     9     8    1
     5    12    13    1
     6     4     3    2
     7     8     3   am
     8     3     2    1
     9     1     2    1
    10    13    15   ar
    11    13    14   ar
    12     2     5    1
    13    15    17   ar
    14    14    16   ar
    15     5     6    1
    16     5     7    1
    17    17    18   ar
    18    92    91    2
    19    16    18   ar
    20    91    90    1
    21    90    89    1
    22    90    93    1
    23    95    93    1
    24    93    94    1
    25    94    96    1
    26    84    83    2
    27   127   125    1
    28    26    24    1
    29   126   125    1
    30    76    75    2
    31   144   143   ar
    32   144   142   ar
    33    83    82    1
    34   143   141   ar
    35   125   124    1
    36   142   140   ar
    37    75    74    1
    38    75    81   am
    39    24    23    1
    40    24    25    1
    41    74    73    1
    42    74    77    1
    43    23    20    1
    44    82    81    1
    45    82    85    1
    46   141   139   ar
    47   124   121    1
    48    79    77    1
    49   140   139   ar
    50   112   110    1
    51    77    78    1
    52   139   138    1
    53   121   120    1
    54   121   122    1
    55    78    80    1
    56    85    86    1
    57    19    20    1
    58    20    21    1
    59   110   111    1
    60   110   109    1
    61   123   122    2
    62   105   106    1
    63   122   128   am
    64   134   135    1
    65    21    22    2
    66   135   138    1
    67   135   136    1
    68    87    86    2
    69   106   109    1
    70   106   107    1
    71    86    88   am
    72    44    45   ar
    73    44    42   ar
    74    68    67    2
    75   137   136    2
    76    45    43   ar
    77   128   129    1
    78    42    40   ar
    79   108   107    2
    80    97    98    1
    81   107   113   am
    82    67    66    1
    83   129   130    1
    84   129   132    1
    85    98    99    1
    86    98   101    1
    87   113   114    1
    88    43    41   ar
    89    99   100    2
    90    40    41   ar
    91    40    39    1
    92   130   131    2
    93    66    65    1
    94    66    69    1
    95   115   116    2
    96   115   114    1
    97    34    32    1
    98   133   132    1
    99    39    36    1
   100    71    70    1
   101    31    32    1
   102    31    28    1
   103   114   117    1
   104    27    28    1
   105   101   102    1
   106   103   102    2
   107    70    69    1
   108    70    72    1
   109    35    36    1
   110    35    29   am
   111    32    33    1
   112    28    29    1
   113   102   104   am
   114    36    37    1
   115   117   118    1
   116   117   119    1
   117    29    30    2
   118    37    38    2
   119    60    59    2
   120    59    58    1
   121    63    61    1
   122    58    61    1
   123    58    57    1
   124    64    62    1
   125    61    62    1
   126    55    53   ar
   127    55    56   ar
   128    53    51   ar
   129    56    54   ar
   130    51    50    1
   131    51    52   ar
   132    54    52   ar
   133    50    47    1
   134    47    48    1
   135    47    46    1
   136    48    49    2
