@<TRIPOS>MOLECULE
tmp/2bdmA04.pdb
 140 133 0 0 0
SMALL
GASTEIGER

@<TRIPOS>ATOM
      1  N         87.8600   45.5420   18.2530 N.3    71  ARG71      -0.1245
      2  CA        88.5060   44.2340   18.2700 C.3    71  ARG71       0.1563
      3  C         88.5320   43.6670   19.6840 C.2    71  ARG71       0.2260
      4  O         88.6740   44.4110   20.6590 O.2    71  ARG71      -0.2867
      5  CB        89.9460   44.3420   17.7450 C.3    71  ARG71       0.0307
      6  CG        90.6620   43.0040   17.6870 C.3    71  ARG71       0.0489
      7  CD        92.0720   43.0650   17.0780 C.3    71  ARG71       0.2205
      8  NE        92.6240   41.7120   16.9590 N.pl3  71  ARG71      -0.0865
      9  CZ        92.9800   40.9440   17.9920 C.cat  71  ARG71       0.5346
     10  NH1       93.4600   39.7220   17.7860 N.pl3  71  ARG71       0.1354
     11  NH2       92.8800   41.4020   19.2350 N.pl3  71  ARG71       0.1354
     12  N         93.0230   39.5760   23.9810 N.3    74  ILE74      -0.1245
     13  CA        93.5370   38.2510   24.2820 C.3    74  ILE74       0.1561
     14  C         93.7950   38.2890   25.7770 C.2    74  ILE74       0.2260
     15  O         94.6690   39.0220   26.2460 O.2    74  ILE74      -0.2867
     16  CB        94.8410   37.9560   23.5270 C.3    74  ILE74       0.0252
     17  CG1       94.5170   37.7050   22.0490 C.3    74  ILE74       0.0019
     18  CG2       95.5610   36.7680   24.1690 C.3    74  ILE74       0.0019
     19  CD1       95.7160   37.3880   21.2010 C.3    74  ILE74       0.0001
     20  N        101.3490   42.8700   22.1990 N.3    88  PHE88      -0.1241
     21  CA       102.7160   43.0000   21.7070 C.3    88  PHE88       0.1605
     22  C        103.2040   44.3310   22.2790 C.2    88  PHE88       0.2264
     23  O        102.4720   45.3270   22.2710 O.2    88  PHE88      -0.2867
     24  CB       102.7410   43.0430   20.1720 C.3    88  PHE88       0.0534
     25  CG       102.5550   41.6930   19.5100 C.ar   88  PHE88      -0.0203
     26  CD1      101.8760   41.5860   18.3020 C.ar   88  PHE88      -0.0042
     27  CD2      103.0690   40.5330   20.0910 C.ar   88  PHE88      -0.0042
     28  CE1      101.7040   40.3470   17.6770 C.ar   88  PHE88      -0.0003
     29  CE2      102.9040   39.2890   19.4740 C.ar   88  PHE88      -0.0003
     30  CZ       102.2180   39.2010   18.2630 C.ar   88  PHE88      -0.0000
     31  N        102.2040   45.2420   15.4370 N.3    94  TRP94      -0.1241
     32  CA       100.8050   44.9350   15.2310 C.3    94  TRP94       0.1605
     33  C        100.2590   45.6170   13.9780 C.2    94  TRP94       0.2264
     34  O         99.6060   44.9770   13.1520 O.2    94  TRP94      -0.2867
     35  CB        99.9970   45.3640   16.4530 C.3    94  TRP94       0.0550
     36  CG        98.5520   45.1050   16.3010 C.ar   94  TRP94       0.0003
     37  CD1       97.5630   46.0300   16.1640 C.ar   94  TRP94       0.0946
     38  CD2       97.9250   43.8240   16.2070 C.ar   94  TRP94       0.0152
     39  NE1       96.3490   45.4050   15.9860 N.ar   94  TRP94      -0.2442
     40  CE2       96.5430   44.0500   16.0080 C.ar   94  TRP94       0.0810
     41  CE3       98.3960   42.5040   16.2710 C.ar   94  TRP94       0.0012
     42  CZ2       95.6270   43.0070   15.8700 C.ar   94  TRP94       0.0191
     43  CZ3       97.4840   41.4640   16.1350 C.ar   94  TRP94       0.0001
     44  CH2       96.1130   41.7230   15.9360 C.ar   94  TRP94       0.0015
     45  N        101.4530   43.9870   10.9060 N.3    97  LEU97      -0.1231
     46  CA       100.7430   42.7260   10.7010 C.3    97  LEU97       0.1693
     47  C         99.4160   42.9560    9.9970 C.2    97  LEU97       0.2591
     48  O         99.1020   42.2830    9.0120 O.2    97  LEU97      -0.2718
     49  CB       100.5000   42.0210   12.0390 C.3    97  LEU97       0.0284
     50  CG        99.6410   40.7470   12.0200 C.3    97  LEU97       0.0019
     51  CD1      100.3170   39.6670   11.1760 C.3    97  LEU97       0.0001
     52  CD2       99.4290   40.2590   13.4530 C.3    97  LEU97       0.0001
     53  N         98.6300   43.9040   10.4980 N.am   98  ARG98      -0.1980
     54  CA        97.3450   44.1990    9.8770 C.3    98  ARG98       0.1597
     55  C         97.5380   44.6190    8.4330 C.2    98  ARG98       0.2287
     56  O         96.7890   44.2030    7.5510 O.2    98  ARG98      -0.2864
     57  CB        96.6170   45.3130   10.6240 C.3    98  ARG98       0.0334
     58  CG        96.0400   44.8870   11.9550 C.3    98  ARG98       0.0492
     59  CD        95.1330   45.9660   12.5010 C.3    98  ARG98       0.2205
     60  NE        94.0930   46.3080   11.5370 N.pl3  98  ARG98      -0.0865
     61  CZ        93.1650   47.2360   11.7390 C.cat  98  ARG98       0.5346
     62  NH1       93.1460   47.9190   12.8760 N.pl3  98  ARG98       0.1354
     63  NH2       92.2590   47.4830   10.8020 N.pl3  98  ARG98       0.1354
     64  N         98.6170   41.6870    6.2030 N.3   101  SER101     -0.1202
     65  CA        97.4630   40.8040    6.1080 C.3   101  SER101      0.2020
     66  C         96.4990   41.2620    5.0300 C.2   101  SER101      0.2618
     67  O         96.0840   40.4680    4.1760 O.2   101  SER101     -0.2717
     68  CB        96.7330   40.7220    7.4470 C.3   101  SER101      0.2103
     69  OG        97.5550   40.1380    8.4380 O.3   101  SER101     -0.2182
     70  N         96.1480   42.5440    5.0620 N.am  102  LEU102     -0.1979
     71  CA        95.2210   43.0870    4.0800 C.3   102  LEU102      0.1596
     72  C         95.8370   43.1040    2.6870 C.2   102  LEU102      0.2287
     73  O         95.2030   42.6920    1.7190 O.2   102  LEU102     -0.2864
     74  CB        94.7840   44.5040    4.4680 C.3   102  LEU102      0.0297
     75  CG        93.6790   45.0820    3.5720 C.3   102  LEU102      0.0022
     76  CD1       92.4250   44.2100    3.6660 C.3   102  LEU102      0.0001
     77  CD2       93.3700   46.5130    3.9830 C.3   102  LEU102      0.0001
     78  N         95.8800   39.7510    1.3330 N.3   105  MET105     -0.1245
     79  CA        94.5100   39.3520    1.0640 C.3   105  MET105      0.1570
     80  C         94.0810   39.9180   -0.3030 C.2   105  MET105      0.2261
     81  O         93.4220   39.2370   -1.0960 O.2   105  MET105     -0.2867
     82  CB        93.6090   39.8650    2.1880 C.3   105  MET105      0.0387
     83  CG        92.5200   38.9060    2.6090 C.3   105  MET105      0.0595
     84  SD        91.8840   39.3420    4.2420 S.3   105  MET105     -0.1393
     85  CE        92.7900   38.2070    5.2920 C.3   105  MET105      0.0692
     86  N        103.4970   27.9150   20.7150 N.3   200  PHE200     -0.1241
     87  CA       103.1050   26.8830   19.7770 C.3   200  PHE200      0.1605
     88  C        103.8030   25.5450   20.0030 C.2   200  PHE200      0.2264
     89  O        104.9610   25.4920   20.4170 O.2   200  PHE200     -0.2867
     90  CB       103.2970   27.4030   18.3610 C.3   200  PHE200      0.0534
     91  CG       102.5320   28.6680   18.0970 C.ar  200  PHE200     -0.0203
     92  CD1      103.0860   29.9080   18.3990 C.ar  200  PHE200     -0.0042
     93  CD2      101.2320   28.6190   17.6040 C.ar  200  PHE200     -0.0042
     94  CE1      102.3590   31.0820   18.2150 C.ar  200  PHE200     -0.0003
     95  CE2      100.4960   29.7860   17.4170 C.ar  200  PHE200     -0.0003
     96  CZ       101.0640   31.0210   17.7240 C.ar  200  PHE200     -0.0000
     97  N         98.9810   32.1590    8.8940 N.3   268  LEU268     -0.1245
     98  CA        97.6070   32.4280    9.3060 C.3   268  LEU268      0.1561
     99  C         96.6510   31.9960    8.1940 C.2   268  LEU268      0.2260
    100  O         95.5980   31.4150    8.4630 O.2   268  LEU268     -0.2867
    101  CB        97.4250   33.9130    9.6500 C.3   268  LEU268      0.0270
    102  CG        98.3220   34.3560   10.8170 C.3   268  LEU268      0.0019
    103  CD1       98.2810   35.8810   10.9690 C.3   268  LEU268      0.0001
    104  CD2       97.8730   33.6620   12.1040 C.3   268  LEU268      0.0001
    105  N         80.3980   45.2020   11.1170 N.3   406  LYS406     -0.1231
    106  CA        81.6800   45.6770   10.6220 C.3   406  LYS406      0.1693
    107  C         82.8510   44.7040   10.7220 C.2   406  LYS406      0.2592
    108  O         83.8240   44.8520    9.9910 O.2   406  LYS406     -0.2718
    109  CB        82.0320   47.0020   11.3090 C.3   406  LYS406      0.0285
    110  CG        81.1410   48.1690   10.8720 C.3   406  LYS406      0.0035
    111  CD        81.3680   49.3830   11.7480 C.3   406  LYS406      0.0206
    112  CE        80.4790   50.5620   11.3440 C.3   406  LYS406      0.1093
    113  NZ        80.9050   51.1710   10.0600 N.3   406  LYS406     -0.1314
    114  N         82.7700   43.7180   11.6130 N.am  407  ARG407     -0.1966
    115  CA        83.8650   42.7610   11.7550 C.3   407  ARG407      0.1729
    116  C         83.5600   41.4060   11.1160 C.2   407  ARG407      0.2616
    117  O         84.2270   40.4170   11.4080 O.2   407  ARG407     -0.2715
    118  CB        84.1960   42.5460   13.2310 C.3   407  ARG407      0.0348
    119  CG        84.5560   43.8060   13.9830 C.3   407  ARG407      0.0492
    120  CD        85.3010   43.4650   15.2610 C.3   407  ARG407      0.2205
    121  NE        86.6480   42.9900   14.9580 N.pl3 407  ARG407     -0.0865
    122  CZ        87.6540   43.7810   14.6050 C.cat 407  ARG407      0.5346
    123  NH1       87.4630   45.0890   14.5210 N.pl3 407  ARG407      0.1354
    124  NH2       88.8450   43.2630   14.3140 N.pl3 407  ARG407      0.1354
    125  N         82.5600   41.3630   10.2440 N.am  408  ILE408     -0.1977
    126  CA        82.1720   40.1180    9.5960 C.3   408  ILE408      0.1596
    127  C         83.3590   39.4610    8.8720 C.2   408  ILE408      0.2287
    128  O         84.1530   40.1340    8.2070 O.2   408  ILE408     -0.2864
    129  CB        80.9920   40.3580    8.6140 C.3   408  ILE408      0.0276
    130  CG1       80.4780   39.0190    8.0830 C.3   408  ILE408      0.0022
    131  CG2       81.4220   41.2730    7.4640 C.3   408  ILE408      0.0022
    132  CD1       79.1910   39.1440    7.2910 C.3   408  ILE408      0.0001
    133  N         86.3040   38.2000    6.9820 N.3   410  LEU410     -0.1245
    134  CA        86.8920   38.6550    5.7330 C.3   410  LEU410      0.1561
    135  C         87.0190   37.5160    4.7210 C.2   410  LEU410      0.2260
    136  O         87.2340   37.7570    3.5370 O.2   410  LEU410     -0.2867
    137  CB        88.2740   39.2500    5.9990 C.3   410  LEU410      0.0270
    138  CG        88.2740   40.6730    6.5620 C.3   410  LEU410      0.0019
    139  CD1       89.6770   41.0790    7.0290 C.3   410  LEU410      0.0001
    140  CD2       87.7710   41.6170    5.4720 C.3   410  LEU410      0.0001
@<TRIPOS>BOND
     1    81    80    2
     2    80    79    1
     3    79    78    1
     4    79    82    1
     5    73    72    2
     6    82    83    1
     7    83    84    1
     8    72    71    1
     9   136   135    2
    10    75    76    1
    11    75    77    1
    12    75    74    1
    13    71    74    1
    14    71    70    1
    15    67    66    2
    16    84    85    1
    17   135   134    1
    18    66    70   am
    19    66    65    1
    20   140   138    1
    21   134   137    1
    22   134   133    1
    23   137   138    1
    24    65    64    1
    25    65    68    1
    26   138   139    1
    27   132   130    1
    28    68    69    1
    29   131   129    1
    30    56    55    2
    31   130   129    1
    32    99   100    2
    33    99    98    1
    34   128   127    2
    35    55    54    1
    36   129   126    1
    37   127   126    1
    38    97    98    1
    39    48    47    2
    40    98   101    1
    41   126   125    1
    42   101   102    1
    43    54    53    1
    44    54    57    1
    45   108   107    2
    46    47    53   am
    47    47    46    1
    48   113   112    1
    49   125   116   am
    50   106   107    1
    51   106   105    1
    52   106   109    1
    53    57    58    1
    54    46    45    1
    55    46    49    1
    56   107   114   am
    57    63    61    1
    58   102   103    1
    59   102   104    1
    60   110   109    1
    61   110   111    1
    62   116   117    2
    63   116   115    1
    64    51    50    1
    65   112   111    1
    66    60    61    2
    67    60    59    1
    68   114   115    1
    69    61    62    1
    70   115   118    1
    71    58    59    1
    72    50    49    1
    73    50    52    1
    74    34    33    2
    75   118   119    1
    76    33    32    1
    77   119   120    1
    78   124   122    1
    79   123   122    1
    80   122   121    2
    81   121   120    1
    82    32    31    1
    83    32    35    1
    84    42    44   ar
    85    42    40   ar
    86    44    43   ar
    87    39    40   ar
    88    39    37   ar
    89    40    38   ar
    90    43    41   ar
    91    37    36   ar
    92    38    41   ar
    93    38    36   ar
    94    36    35    1
    95     8     7    1
    96     8     9    2
    97     7     6    1
    98    95    93   ar
    99    95    96   ar
   100    93    91   ar
   101    28    30   ar
   102    28    26   ar
   103     6     5    1
   104    96    94   ar
   105     5     2    1
   106    10     9    1
   107     9    11    1
   108    91    90    1
   109    91    92   ar
   110    94    92   ar
   111     1     2    1
   112    30    29   ar
   113     2     3    1
   114    26    25   ar
   115    90    87    1
   116    29    27   ar
   117    25    27   ar
   118    25    24    1
   119     3     4    2
   120    87    88    1
   121    87    86    1
   122    88    89    2
   123    24    21    1
   124    19    17    1
   125    21    20    1
   126    21    22    1
   127    17    16    1
   128    23    22    2
   129    16    18    1
   130    16    13    1
   131    12    13    1
   132    13    14    1
   133    14    15    2
