@<TRIPOS>MOLECULE
tmp/2bdyA01.pdb
 196 197 0 0 0
SMALL
GASTEIGER

@<TRIPOS>ATOM
      1  N         22.6900   -6.1770   17.9240 N.3    70  HIS70      -0.1241
      2  CA        22.5210   -7.5410   17.4240 C.3    70  HIS70       0.1621
      3  C         21.6900   -7.6140   16.1360 C.2    70  HIS70       0.2264
      4  O         21.6470   -8.6650   15.4880 O.2    70  HIS70      -0.2867
      5  CB        21.9330   -8.4680   18.4810 C.3    70  HIS70       0.0745
      6  CG        20.4400   -8.3890   18.6110 C.ar   70  HIS70       0.0817
      7  ND1       19.8150   -7.7450   19.6630 N.ar   70  HIS70      -0.2268
      8  CD2       19.4470   -8.9010   17.8400 C.ar   70  HIS70       0.1154
      9  CE1       18.5060   -7.8670   19.5270 C.ar   70  HIS70       0.1986
     10  NE2       18.2570   -8.5470   18.4200 N.ar   70  HIS70      -0.2212
     11  N         26.0130  -10.1690   15.0010 N.3    74  TYR74      -0.1241
     12  CA        25.9200  -11.2510   15.9650 C.3    74  TYR74       0.1605
     13  C         26.6520  -12.4780   15.3980 C.2    74  TYR74       0.2264
     14  O         26.0340  -13.3090   14.7310 O.2    74  TYR74      -0.2867
     15  CB        24.4650  -11.5960   16.2900 C.3    74  TYR74       0.0534
     16  CG        24.3750  -12.4970   17.4900 C.ar   74  TYR74      -0.0201
     17  CD1       24.8480  -12.0840   18.7190 C.ar   74  TYR74      -0.0009
     18  CD2       23.8390  -13.7550   17.3980 C.ar   74  TYR74      -0.0009
     19  CE1       24.8040  -12.9230   19.8220 C.ar   74  TYR74       0.0417
     20  CE2       23.7550  -14.5890   18.4940 C.ar   74  TYR74       0.0417
     21  CZ        24.2640  -14.1760   19.7020 C.ar   74  TYR74       0.1957
     22  OH        24.1960  -15.0220   20.7790 O.3    74  TYR74      -0.2866
     23  N         25.5310  -16.3180   14.9110 N.3    77  TRP77      -0.1241
     24  CA        24.5630  -16.6080   13.8630 C.3    77  TRP77       0.1605
     25  C         25.0400  -16.1420   12.5010 C.2    77  TRP77       0.2264
     26  O         24.2220  -16.0160   11.5720 O.2    77  TRP77      -0.2867
     27  CB        23.2470  -15.8910   14.1840 C.3    77  TRP77       0.0550
     28  CG        22.5460  -16.4080   15.3800 C.ar   77  TRP77       0.0003
     29  CD1       22.8160  -17.5550   16.0740 C.ar   77  TRP77       0.0946
     30  CD2       21.4380  -15.7900   16.0530 C.ar   77  TRP77       0.0152
     31  NE1       21.9490  -17.6880   17.1280 N.ar   77  TRP77      -0.2442
     32  CE2       21.0890  -16.6190   17.1360 C.ar   77  TRP77       0.0810
     33  CE3       20.7060  -14.6140   15.8470 C.ar   77  TRP77       0.0012
     34  CZ2       20.0420  -16.3120   18.0100 C.ar   77  TRP77       0.0191
     35  CZ3       19.6700  -14.3080   16.7190 C.ar   77  TRP77       0.0001
     36  CH2       19.3400  -15.1570   17.7780 C.ar   77  TRP77       0.0015
     37  N         28.5970  -12.8890   25.3270 N.3   121  GLU121     -0.1231
     38  CA        27.9560  -13.3730   26.5310 C.3   121  GLU121      0.1699
     39  C         26.4740  -13.0410   26.6160 C.2   121  GLU121      0.2592
     40  O         25.6650  -13.9310   26.4330 O.2   121  GLU121     -0.2718
     41  CB        28.6600  -12.8960   27.7940 C.3   121  GLU121      0.0402
     42  CG        28.0520  -13.5570   29.0370 C.3   121  GLU121      0.1161
     43  CD        28.3310  -12.8590   30.3540 C.2   121  GLU121      0.3649
     44  OE1       29.1870  -11.9530   30.4200 O.co2 121  GLU121     -0.2457
     45  OE2       27.6800  -13.2460   31.3520 O.co2 121  GLU121     -0.2457
     46  N         26.1170  -11.7970   26.9340 N.am  122  ASN122     -0.1960
     47  CA        24.7570  -11.4890   27.4340 C.3   122  ASN122      0.1819
     48  C         24.0680  -10.3290   26.7060 C.2   122  ASN122      0.2621
     49  O         23.0390   -9.8500   27.1540 O.2   122  ASN122     -0.2715
     50  CB        24.7990  -11.1990   28.9350 C.3   122  ASN122      0.1195
     51  CG        25.6990  -10.0060   29.3020 C.2   122  ASN122      0.2630
     52  OD1       26.4710   -9.4890   28.4820 O.2   122  ASN122     -0.2716
     53  ND2       25.5920   -9.5620   30.5620 N.am  122  ASN122     -0.0877
     54  N         24.6510   -9.9020   25.5810 N.am  123  LEU123     -0.1977
     55  CA        24.1530   -8.7550   24.8090 C.3   123  LEU123      0.1596
     56  C         24.1920   -7.4540   25.5820 C.2   123  LEU123      0.2287
     57  O         23.4430   -6.5270   25.3010 O.2   123  LEU123     -0.2864
     58  CB        22.7370   -9.0180   24.2810 C.3   123  LEU123      0.0297
     59  CG        22.5900  -10.3070   23.4700 C.3   123  LEU123      0.0022
     60  CD1       21.1540  -10.4390   23.0910 C.3   123  LEU123      0.0001
     61  CD2       23.4810  -10.3120   22.2190 C.3   123  LEU123      0.0001
     62  N         20.4600  -15.6370   32.4750 N.3   199  ILE199     -0.1245
     63  CA        21.3720  -14.6860   31.8430 C.3   199  ILE199      0.1561
     64  C         21.8270  -13.6590   32.8750 C.2   199  ILE199      0.2260
     65  O         21.0380  -13.2440   33.7250 O.2   199  ILE199     -0.2867
     66  CB        20.6630  -13.9850   30.6490 C.3   199  ILE199      0.0252
     67  CG1       20.1480  -15.0130   29.6350 C.3   199  ILE199      0.0019
     68  CG2       21.5770  -12.9580   29.9790 C.3   199  ILE199      0.0019
     69  CD1       21.2280  -15.8420   28.9680 C.3   199  ILE199      0.0001
     70  N          4.2320   -8.6220   24.9400 N.3   219  ASP219     -0.1225
     71  CA         5.6790   -8.7150   24.8450 C.3   219  ASP219      0.1805
     72  C          6.1010   -8.3450   23.4500 C.2   219  ASP219      0.2598
     73  O          5.3180   -8.3910   22.5210 O.2   219  ASP219     -0.2718
     74  CB         6.1370  -10.1530   25.1080 C.3   219  ASP219      0.1424
     75  CG         7.5850  -10.2500   25.5310 C.2   219  ASP219      0.3668
     76  OD1        8.0900  -11.4020   25.6590 O.co2 219  ASP219     -0.2456
     77  OD2        8.2890   -9.2440   25.7790 O.co2 219  ASP219     -0.2456
     78  N          7.3630   -7.9650   23.3140 N.am  220  ALA220     -0.1966
     79  CA         8.0050   -7.9320   22.0280 C.3   220  ALA220      0.1728
     80  C          8.3820   -9.3680   21.6490 C.2   220  ALA220      0.2616
     81  O          8.2810  -10.2770   22.4710 O.2   220  ALA220     -0.2715
     82  CB         9.2610   -7.0250   22.0900 C.3   220  ALA220      0.0334
     83  N          8.8400   -9.5440   20.4270 N.am  221  CYS221     -0.1954
     84  CA         9.1970  -10.8690   19.8970 C.3   221  CYS221      0.1843
     85  C         10.2000  -10.7590   18.7600 C.2   221  CYS221      0.2625
     86  O         10.6100   -9.6490   18.3870 O.2   221  CYS221     -0.2714
     87  CB         7.9130  -11.5520   19.4160 C.3   221  CYS221      0.0997
     88  SG         7.9850  -13.3840   19.3560 S.3   221  CYS221     -0.0797
     89  N         10.5960  -11.9010   18.1790 N.am  222  GLU222     -0.1963
     90  CA        11.4230  -11.9020   16.9660 C.3   222  GLU222      0.1733
     91  C         10.8680  -10.9250   15.9450 C.2   222  GLU222      0.2616
     92  O          9.6690  -10.9420   15.6670 O.2   222  GLU222     -0.2715
     93  CB        11.4790  -13.2970   16.3030 C.3   222  GLU222      0.0429
     94  CG        12.3630  -13.3140   15.0470 C.3   222  GLU222      0.1163
     95  CD        12.4760  -14.6700   14.3570 C.2   222  GLU222      0.3649
     96  OE1       12.1840  -15.7190   14.9860 O.co2 222  GLU222     -0.2457
     97  OE2       12.8670  -14.6840   13.1620 O.co2 222  GLU222     -0.2457
     98  N         11.7520  -10.0870   15.4040 N.am  223  GLY223     -0.1955
     99  CA        11.4270   -9.0980   14.3900 C.3   223  GLY223      0.1869
    100  C         11.2130   -7.7110   14.9780 C.2   223  GLY223      0.2309
    101  O         11.3400   -6.7400   14.2630 O.2   223  GLY223     -0.2863
    102  N         13.1580   -6.6050   17.4740 N.3   225  SER225     -0.1217
    103  CA        14.4920   -6.1810   17.8780 C.3   225  SER225      0.1889
    104  C         14.8600   -4.8300   17.3030 C.2   225  SER225      0.2288
    105  O         14.6220   -4.5880   16.1100 O.2   225  SER225     -0.2866
    106  CB        15.5530   -7.1820   17.3820 C.3   225  SER225      0.2089
    107  OG        15.4490   -8.4310   18.0380 O.3   225  SER225     -0.2183
    108  N         14.4390   -2.6370   22.1150 N.3   245  VAL245     -0.1231
    109  CA        14.1040   -4.0520   22.1740 C.3   245  VAL245      0.1692
    110  C         15.3870   -4.8670   21.9720 C.2   245  VAL245      0.2593
    111  O         16.0210   -4.7970   20.9290 O.2   245  VAL245     -0.2718
    112  CB        13.0470   -4.4470   21.1050 C.3   245  VAL245      0.0266
    113  CG1       12.6880   -5.8980   21.2120 C.3   245  VAL245      0.0020
    114  CG2       11.7700   -3.5960   21.2440 C.3   245  VAL245      0.0020
    115  N         15.7720   -5.6370   22.9840 N.am  246  SER246     -0.1938
    116  CA        17.0240   -6.3890   22.9540 C.3   246  SER246      0.2055
    117  C         16.7670   -7.9000   22.9230 C.2   246  SER246      0.2643
    118  O         16.9510   -8.5410   21.8900 O.2   246  SER246     -0.2714
    119  CB        17.9160   -5.9850   24.1360 C.3   246  SER246      0.2130
    120  OG        19.1910   -6.5930   24.0360 O.3   246  SER246     -0.2179
    121  N         16.3120   -8.4700   24.0300 N.am  247  TRP247     -0.1959
    122  CA        16.1380   -9.9090   24.0910 C.3   247  TRP247      0.1771
    123  C         15.0380  -10.3690   25.0160 C.2   247  TRP247      0.2620
    124  O         14.4940   -9.6160   25.8060 O.2   247  TRP247     -0.2715
    125  CB        17.4770  -10.5830   24.4820 C.3   247  TRP247      0.0590
    126  CG        18.0540  -10.1740   25.7880 C.ar  247  TRP247      0.0006
    127  CD1       18.8160   -9.0970   26.0320 C.ar  247  TRP247      0.0946
    128  CD2       17.9140  -10.8540   27.0430 C.ar  247  TRP247      0.0152
    129  NE1       19.1820   -9.0420   27.3550 N.ar  247  TRP247     -0.2442
    130  CE2       18.6460  -10.1230   27.9950 C.ar  247  TRP247      0.0810
    131  CE3       17.2570  -12.0220   27.4530 C.ar  247  TRP247      0.0012
    132  CZ2       18.7170  -10.4910   29.3420 C.ar  247  TRP247      0.0191
    133  CZ3       17.3470  -12.3950   28.7960 C.ar  247  TRP247      0.0001
    134  CH2       18.0690  -11.6360   29.7060 C.ar  247  TRP247      0.0015
    135  N         14.7500  -11.6610   24.9120 N.am  248  GLY248     -0.1940
    136  CA        13.7460  -12.3290   25.7090 C.3   248  GLY248      0.2014
    137  C         13.7980  -13.8120   25.3900 C.2   248  GLY248      0.2639
    138  O         14.2550  -14.2230   24.3220 O.2   248  GLY248     -0.2714
    139  N         13.3000  -14.6100   26.3130 N.am  249  GLU249     -0.1963
    140  CA        13.3180  -16.0660   26.1840 C.3   249  GLU249      0.1733
    141  C         11.9190  -16.4360   25.7710 C.2   249  GLU249      0.2617
    142  O         10.9970  -16.2980   26.5440 O.2   249  GLU249     -0.2715
    143  CB        13.7000  -16.6990   27.5150 C.3   249  GLU249      0.0429
    144  CG        15.0550  -16.2590   28.0280 C.3   249  GLU249      0.1163
    145  CD        15.3440  -16.7170   29.4580 C.2   249  GLU249      0.3649
    146  OE1       14.6480  -17.6440   29.9790 O.co2 249  GLU249     -0.2457
    147  OE2       16.2830  -16.1640   30.0600 O.co2 249  GLU249     -0.2457
    148  N         11.7490  -16.8120   24.5140 N.am  250  GLY250     -0.1940
    149  CA        10.4250  -16.8920   23.9270 C.3   250  GLY250      0.2014
    150  C          9.7820  -15.5130   23.9010 C.2   250  GLY250      0.2639
    151  O         10.4620  -14.4900   23.9980 O.2   250  GLY250     -0.2714
    152  N          8.4650  -15.4970   23.7850 N.am  251  CYS251     -0.1967
    153  CA         7.7050  -14.2600   23.6870 C.3   251  CYS251      0.1712
    154  C          6.3970  -14.4240   24.4260 C.2   251  CYS251      0.2296
    155  O          5.6390  -15.3620   24.1360 O.2   251  CYS251     -0.2864
    156  CB         7.4090  -13.9470   22.2290 C.3   251  CYS251      0.0983
    157  SG         8.8400  -13.9080   21.1340 S.3   251  CYS251     -0.0798
    158  N         10.1480  -11.9590   31.0270 N.3   257  TYR257     -0.1227
    159  CA        10.0490  -10.5300   30.7490 C.3   257  TYR257      0.1736
    160  C         10.8930  -10.1950   29.5290 C.2   257  TYR257      0.2596
    161  O         11.8260  -10.9200   29.1710 O.2   257  TYR257     -0.2718
    162  CB        10.5210   -9.7190   31.9560 C.3   257  TYR257      0.0548
    163  CG         9.6990  -10.0770   33.1610 C.ar  257  TYR257     -0.0200
    164  CD1       10.1060  -11.0920   34.0220 C.ar  257  TYR257     -0.0009
    165  CD2        8.4620   -9.4870   33.3710 C.ar  257  TYR257     -0.0009
    166  CE1        9.3080  -11.4730   35.1110 C.ar  257  TYR257      0.0417
    167  CE2        7.6570   -9.8590   34.4440 C.ar  257  TYR257      0.0417
    168  CZ         8.0880  -10.8530   35.3080 C.ar  257  TYR257      0.1957
    169  OH         7.2950  -11.2190   36.3770 O.3   257  TYR257     -0.2866
    170  N         10.5370   -9.1000   28.8790 N.am  258  GLY258     -0.1942
    171  CA        11.3370   -8.5860   27.7960 C.3   258  GLY258      0.2014
    172  C         12.4270   -7.7110   28.3450 C.2   258  GLY258      0.2639
    173  O         12.2000   -6.9500   29.3000 O.2   258  GLY258     -0.2714
    174  N         13.6120   -7.8430   27.7490 N.am  259  PHE259     -0.1959
    175  CA        14.7570   -7.0510   28.1220 C.3   259  PHE259      0.1771
    176  C         15.0380   -6.0240   27.0650 C.2   259  PHE259      0.2619
    177  O         14.9050   -6.2640   25.8520 O.2   259  PHE259     -0.2715
    178  CB        15.9730   -7.9540   28.4160 C.3   259  PHE259      0.0574
    179  CG        15.8710   -8.6210   29.7620 C.ar  259  PHE259     -0.0200
    180  CD1       15.0540   -9.7240   29.9460 C.ar  259  PHE259     -0.0042
    181  CD2       16.5250   -8.0820   30.8480 C.ar  259  PHE259     -0.0042
    182  CE1       14.9160  -10.3170   31.2030 C.ar  259  PHE259     -0.0003
    183  CE2       16.3880   -8.6550   32.0950 C.ar  259  PHE259     -0.0003
    184  CZ        15.5790   -9.7810   32.2630 C.ar  259  PHE259     -0.0000
    185  N         15.4330   -4.8620   27.5630 N.am  260  TYR260     -0.1974
    186  CA        15.6580   -3.6510   26.7740 C.3   260  TYR260      0.1639
    187  C         16.9640   -2.9790   27.1360 C.2   260  TYR260      0.2290
    188  O         17.3270   -2.8660   28.3120 O.2   260  TYR260     -0.2864
    189  CB        14.5130   -2.6350   27.0130 C.3   260  TYR260      0.0560
    190  CG        13.1670   -3.2080   26.6950 C.ar  260  TYR260     -0.0198
    191  CD1       12.4900   -4.0030   27.6180 C.ar  260  TYR260     -0.0009
    192  CD2       12.5940   -3.0220   25.4440 C.ar  260  TYR260     -0.0009
    193  CE1       11.2850   -4.5690   27.3180 C.ar  260  TYR260      0.0417
    194  CE2       11.3860   -3.6150   25.1280 C.ar  260  TYR260      0.0417
    195  CZ        10.7390   -4.3910   26.0780 C.ar  260  TYR260      0.1957
    196  OH         9.5380   -4.9730   25.7410 O.3   260  TYR260     -0.2866
@<TRIPOS>BOND
     1    26    25    2
     2    25    24    1
     3    97    95   ar
     4    24    27    1
     5    24    23    1
     6    27    28    1
     7   101   100    2
     8    95    96   ar
     9    95    94    1
    10    99   100    1
    11    99    98    1
    12    14    13    2
    13    11    12    1
    14    94    93    1
    15    28    30   ar
    16    28    29   ar
    17    13    12    1
    18    98    91   am
    19     4     3    2
    20    92    91    2
    21    33    30   ar
    22    33    35   ar
    23    91    90    1
    24    12    15    1
    25    30    32   ar
    26    29    31   ar
    27   105   104    2
    28     3     2    1
    29    15    16    1
    30    93    90    1
    31    35    36   ar
    32    90    89    1
    33    31    32   ar
    34    32    34   ar
    35   104   103    1
    36   106   103    1
    37   106   107    1
    38    18    16   ar
    39    18    20   ar
    40     2     1    1
    41     2     5    1
    42   102   103    1
    43    16    17   ar
    44    36    34   ar
    45     8    10   ar
    46     8     6   ar
    47    89    85   am
    48    86    85    2
    49    10     9   ar
    50     5     6    1
    51    20    21   ar
    52     6     7   ar
    53    17    19   ar
    54    85    84    1
    55    88    87    1
    56    88   157    1
    57    87    84    1
    58     9     7   ar
    59    21    19   ar
    60    21    22    1
    61    84    83    1
    62    83    80   am
    63   111   110    2
    64   112   113    1
    65   112   114    1
    66   112   109    1
    67   157   156    1
    68    80    79    1
    69    80    81    2
    70   118   117    2
    71   110   109    1
    72   110   115   am
    73    79    82    1
    74    79    78    1
    75   108   109    1
    76    61    59    1
    77   156   153    1
    78    73    72    2
    79   117   116    1
    80   117   121   am
    81   116   115    1
    82   116   119    1
    83    60    59    1
    84    78    72   am
    85    72    71    1
    86    59    58    1
    87   153   152    1
    88   153   154    1
    89   152   150   am
    90   150   149    1
    91   150   151    2
    92   149   148    1
    93   121   122    1
    94   120   119    1
    95   122   125    1
    96   122   123    1
    97   155   154    2
    98    58    55    1
    99   138   137    2
   100   125   126    1
   101   148   141   am
   102    55    54    1
   103    55    56    1
   104    71    70    1
   105    71    74    1
   106   135   123   am
   107   135   136    1
   108   123   124    2
   109    74    75    1
   110   194   192   ar
   111   194   195   ar
   112    57    56    2
   113    37    38    1
   114   137   136    1
   115   137   139   am
   116   192   190   ar
   117    75    76   ar
   118    75    77   ar
   119    54    48   am
   120   196   195    1
   121   141   140    1
   122   141   142    2
   123   126   127   ar
   124   126   128   ar
   125   177   176    2
   126   127   129   ar
   127   195   193   ar
   128   140   139    1
   129   140   143    1
   130    40    39    2
   131    38    39    1
   132    38    41    1
   133    39    46   am
   134   190   189    1
   135   190   191   ar
   136    48    49    2
   137    48    47    1
   138   186   189    1
   139   186   187    1
   140   186   185    1
   141    46    47    1
   142   128   131   ar
   143   128   130   ar
   144   176   185   am
   145   176   175    1
   146   187   188    2
   147   193   191   ar
   148   129   130   ar
   149    47    50    1
   150   131   133   ar
   151   143   144    1
   152   174   175    1
   153   174   172   am
   154    41    42    1
   155   171   172    1
   156   171   170    1
   157   130   132   ar
   158   144   145    1
   159   175   178    1
   160   172   173    2
   161   178   179    1
   162    52    51    2
   163   133   134   ar
   164   170   160   am
   165    50    51    1
   166    69    67    1
   167    42    43    1
   168   161   160    2
   169    51    53   am
   170   132   134   ar
   171   145   146   ar
   172   145   147   ar
   173   160   159    1
   174    67    66    1
   175   179   180   ar
   176   179   181   ar
   177   180   182   ar
   178    68    66    1
   179    43    44   ar
   180    43    45   ar
   181    66    63    1
   182   159   158    1
   183   159   162    1
   184   181   183   ar
   185   182   184   ar
   186    63    62    1
   187    63    64    1
   188   162   163    1
   189   183   184   ar
   190    64    65    2
   191   163   165   ar
   192   163   164   ar
   193   165   167   ar
   194   164   166   ar
   195   167   168   ar
   196   166   168   ar
   197   168   169    1
