@<TRIPOS>MOLECULE
tmp/2bdzA00.pdb
 143 140 0 0 0
SMALL
GASTEIGER

@<TRIPOS>ATOM
      1  N         18.4770   25.9730   31.4020 N.3    19  GLN19      -0.1245
      2  CA        19.3180   25.5450   32.5220 C.3    19  GLN19       0.1566
      3  C         18.7890   25.9860   33.8810 C.2    19  GLN19       0.2260
      4  O         19.1370   25.3850   34.9130 O.2    19  GLN19      -0.2867
      5  CB        20.7490   26.0850   32.3510 C.3    19  GLN19       0.0367
      6  CG        20.8430   27.6000   32.4710 C.3    19  GLN19       0.0905
      7  CD        22.2780   28.1190   32.4200 C.2    19  GLN19       0.2608
      8  OE1       22.9000   28.1660   31.3600 O.2    19  GLN19      -0.2717
      9  NE2       22.7940   28.5180   33.5630 N.am   19  GLN19      -0.0878
     10  N         23.3230   27.0450   37.6680 N.3    23  GLY23      -0.1225
     11  CA        24.4110   27.6750   36.9160 C.3    23  GLY23       0.1811
     12  C         25.2910   26.6610   36.1980 C.2    23  GLY23       0.2280
     13  O         26.4710   26.6040   36.4320 O.2    23  GLY23      -0.2866
     14  N         25.8140   26.3090   32.7430 N.3    25  CYS25      -0.1221
     15  CA        26.0440   26.6700   31.3450 C.3    25  CYS25       0.1808
     16  C         27.1630   25.8760   30.6980 C.2    25  CYS25       0.2601
     17  O         27.0700   25.5410   29.5300 O.2    25  CYS25      -0.2717
     18  CB        26.3580   28.1550   31.2200 C.3    25  CYS25       0.0970
     19  SG        27.8690   28.6590   32.0790 S.3    25  CYS25      -0.0800
     20  N         28.2260   25.5950   31.4590 N.am   26  TRP26      -0.1976
     21  CA        29.3610   24.8030   30.9550 C.3    26  TRP26       0.1640
     22  C         28.8840   23.4900   30.3190 C.2    26  TRP26       0.2290
     23  O         29.3560   23.1050   29.2420 O.2    26  TRP26      -0.2864
     24  CB        30.3620   24.5220   32.0870 C.3    26  TRP26       0.0576
     25  CG        29.7720   23.7860   33.2800 C.ar   26  TRP26       0.0006
     26  CD1       29.0960   24.3350   34.3320 C.ar   26  TRP26       0.0946
     27  CD2       29.8240   22.3680   33.5370 C.ar   26  TRP26       0.0152
     28  NE1       28.7170   23.3580   35.2210 N.ar   26  TRP26      -0.2442
     29  CE2       29.1520   22.1410   34.7600 C.ar   26  TRP26       0.0810
     30  CE3       30.3680   21.2720   32.8480 C.ar   26  TRP26       0.0012
     31  CZ2       29.0220   20.8660   35.3220 C.ar   26  TRP26       0.0191
     32  CZ3       30.2190   19.9960   33.4000 C.ar   26  TRP26       0.0001
     33  CH2       29.5490   19.8090   34.6270 C.ar   26  TRP26       0.0015
     34  N         32.1800   22.4690   38.8660 N.3    61  HIS61      -0.1241
     35  CA        31.5630   22.6740   40.1680 C.3    61  HIS61       0.1621
     36  C         30.0280   22.6940   40.1340 C.2    61  HIS61       0.2264
     37  O         29.3860   23.4880   40.8310 O.2    61  HIS61      -0.2867
     38  CB        32.1470   23.9370   40.7860 C.3    61  HIS61       0.0745
     39  CG        33.6150   24.0820   40.5200 C.ar   61  HIS61       0.0817
     40  ND1       34.5600   23.2980   41.1460 N.ar   61  HIS61      -0.2268
     41  CD2       34.2920   24.8680   39.6520 C.ar   61  HIS61       0.1154
     42  CE1       35.7620   23.6190   40.6960 C.ar   61  HIS61       0.1986
     43  NE2       35.6270   24.5680   39.7870 N.ar   61  HIS61      -0.2212
     44  N         27.4080   25.6420   40.3880 N.3    64  ASP64      -0.1225
     45  CA        28.3070   26.7740   40.6530 C.3    64  ASP64       0.1805
     46  C         29.2980   27.0460   39.5160 C.2    64  ASP64       0.2598
     47  O         30.1940   27.8840   39.6600 O.2    64  ASP64      -0.2718
     48  CB        29.0440   26.5950   41.9960 C.3    64  ASP64       0.1424
     49  CG        28.0960   26.5630   43.1720 C.2    64  ASP64       0.3668
     50  OD1       27.1110   27.3210   43.1550 O.co2  64  ASP64      -0.2456
     51  OD2       28.3170   25.7710   44.1080 O.co2  64  ASP64      -0.2456
     52  N         29.1340   26.3530   38.3850 N.am   65  GLY65      -0.1942
     53  CA        29.9300   26.6530   37.1950 C.3    65  GLY65       0.2014
     54  C         30.9790   25.5980   36.8790 C.2    65  GLY65       0.2639
     55  O         31.2660   24.7410   37.7010 O.2    65  GLY65      -0.2714
     56  N         31.5490   25.6540   35.6770 N.am   66  GLY66      -0.1939
     57  CA        32.5150   24.6490   35.2680 C.3    66  GLY66       0.2014
     58  C         33.3670   25.0440   34.0920 C.2    66  GLY66       0.2639
     59  O         33.4710   26.2320   33.7650 O.2    66  GLY66      -0.2714
     60  N         33.9530   24.0340   33.4450 N.am   67  TYR67      -0.1959
     61  CA        35.0240   24.2230   32.4390 C.3    67  TYR67       0.1771
     62  C         34.6930   23.5330   31.1320 C.2    67  TYR67       0.2619
     63  O         34.0490   22.4690   31.1220 O.2    67  TYR67      -0.2715
     64  CB        36.3720   23.6640   32.9520 C.3    67  TYR67       0.0574
     65  CG        36.7300   24.0890   34.3680 C.ar   67  TYR67      -0.0198
     66  CD1       37.2650   25.3390   34.6200 C.ar   67  TYR67      -0.0009
     67  CD2       36.5420   23.2190   35.4530 C.ar   67  TYR67      -0.0009
     68  CE1       37.5810   25.7420   35.9300 C.ar   67  TYR67       0.0417
     69  CE2       36.8810   23.5950   36.7540 C.ar   67  TYR67       0.0417
     70  CZ        37.3930   24.8570   36.9850 C.ar   67  TYR67       0.1957
     71  OH        37.7090   25.2490   38.2660 O.3    67  TYR67      -0.2866
     72  N         35.1560   24.1280   30.0320 N.am   68  GLN68      -0.1977
     73  CA        34.9320   23.5820   28.6900 C.3    68  GLN68       0.1601
     74  C         35.7870   22.3490   28.4760 C.2    68  GLN68       0.2287
     75  O         35.3170   21.3550   27.9450 O.2    68  GLN68      -0.2864
     76  CB        35.2410   24.6330   27.6130 C.3    68  GLN68       0.0394
     77  CG        34.3130   25.8400   27.6210 C.3    68  GLN68       0.0908
     78  CD        34.9360   27.0740   26.9530 C.2    68  GLN68       0.2608
     79  OE1       35.9180   27.6340   27.4520 O.2    68  GLN68      -0.2717
     80  NE2       34.3540   27.5060   25.8250 N.am   68  GLN68      -0.0878
     81  N         32.3040   31.6380   24.9570 N.3   133  VAL133     -0.1245
     82  CA        31.9770   32.2990   26.2240 C.3   133  VAL133      0.1561
     83  C         31.6110   33.7670   26.0090 C.2   133  VAL133      0.2260
     84  O         32.0160   34.3780   25.0080 O.2   133  VAL133     -0.2867
     85  CB        33.1330   32.1480   27.2840 C.3   133  VAL133      0.0252
     86  CG1       33.3640   30.6900   27.6190 C.3   133  VAL133      0.0019
     87  CG2       34.4280   32.7960   26.7810 C.3   133  VAL133      0.0019
     88  N         27.9990   38.1500   30.3570 N.3   136  SER136     -0.1217
     89  CA        26.5280   38.2540   30.3600 C.3   136  SER136      0.1889
     90  C         25.9660   39.1030   31.5240 C.2   136  SER136      0.2288
     91  O         24.7530   39.1610   31.7310 O.2   136  SER136     -0.2866
     92  CB        25.9020   36.8510   30.3740 C.3   136  SER136      0.2089
     93  OG        26.1820   36.2070   31.6060 O.3   136  SER136     -0.2183
     94  N         34.1050   37.4560   30.8500 N.3   157  THR157     -0.1203
     95  CA        33.2390   36.3560   30.4790 C.3   157  THR157      0.1994
     96  C         32.8610   35.5110   31.6870 C.2   157  THR157      0.2618
     97  O         33.6840   35.2500   32.5680 O.2   157  THR157     -0.2717
     98  CB        33.8970   35.4720   29.3960 C.3   157  THR157      0.1784
     99  OG1       35.1420   34.9920   29.8850 O.3   157  THR157     -0.2211
    100  CG2       34.1430   36.2670   28.0970 C.3   157  THR157      0.0376
    101  N         31.6020   35.0900   31.7270 N.am  158  ASP158     -0.1959
    102  CA        31.0930   34.3580   32.8720 C.3   158  ASP158      0.1840
    103  C         30.0250   33.3470   32.4780 C.2   158  ASP158      0.2622
    104  O         29.4520   32.7000   33.3300 O.2   158  ASP158     -0.2715
    105  CB        30.5640   35.3340   33.9460 C.3   158  ASP158      0.1450
    106  CG        29.3080   36.0940   33.5000 C.2   158  ASP158      0.3671
    107  OD1       29.0290   36.2010   32.2860 O.co2 158  ASP158     -0.2456
    108  OD2       28.5870   36.5820   34.3810 O.co2 158  ASP158     -0.2456
    109  N         29.7980   33.1920   31.1770 N.am  159  HIS159     -0.1959
    110  CA        28.6990   32.3880   30.6860 C.3   159  HIS159      0.1787
    111  C         29.1280   31.6590   29.4090 C.2   159  HIS159      0.2620
    112  O         29.5960   32.2830   28.4590 O.2   159  HIS159     -0.2715
    113  CB        27.4690   33.2730   30.4590 C.3   159  HIS159      0.0785
    114  CG        26.2440   32.5300   30.0180 C.ar  159  HIS159      0.0821
    115  ND1       25.8020   31.3770   30.6340 N.ar  159  HIS159     -0.2267
    116  CD2       25.3450   32.7990   29.0430 C.ar  159  HIS159      0.1154
    117  CE1       24.7020   30.9560   30.0390 C.ar  159  HIS159      0.1986
    118  NE2       24.4030   31.8010   29.0730 N.ar  159  HIS159     -0.2212
    119  N         29.0010   30.3270   29.4280 N.am  160  ALA160     -0.1977
    120  CA        29.3820   29.4830   28.2960 C.3   160  ALA160      0.1597
    121  C         28.1650   29.1920   27.4260 C.2   160  ALA160      0.2287
    122  O         27.1260   28.7510   27.9200 O.2   160  ALA160     -0.2864
    123  CB        30.0240   28.1840   28.7830 C.3   160  ALA160      0.0319
    124  N         18.7320   29.7110   28.2200 N.3   177  TRP177     -0.1241
    125  CA        17.8050   30.3290   29.1620 C.3   177  TRP177      0.1605
    126  C         16.3410   30.1500   28.7300 C.2   177  TRP177      0.2264
    127  O         15.4750   30.9140   29.1520 O.2   177  TRP177     -0.2867
    128  CB        18.1010   31.8270   29.3360 C.3   177  TRP177      0.0550
    129  CG        19.4490   32.1830   29.9070 C.ar  177  TRP177      0.0003
    130  CD1       20.3170   31.3610   30.5670 C.ar  177  TRP177      0.0946
    131  CD2       20.0590   33.4790   29.8880 C.ar  177  TRP177      0.0152
    132  NE1       21.4350   32.0590   30.9410 N.ar  177  TRP177     -0.2442
    133  CE2       21.3040   33.3640   30.5370 C.ar  177  TRP177      0.0810
    134  CE3       19.6700   34.7310   29.3830 C.ar  177  TRP177      0.0012
    135  CZ2       22.1770   34.4690   30.7050 C.ar  177  TRP177      0.0191
    136  CZ3       20.5470   35.8280   29.5380 C.ar  177  TRP177      0.0001
    137  CH2       21.7770   35.6810   30.1940 C.ar  177  TRP177      0.0015
    138  N         37.3760   32.3980   24.6000 N.3   205  SER205     -0.1217
    139  CA        37.6730   31.0070   24.9530 C.3   205  SER205      0.1889
    140  C         36.7470   30.0530   24.2470 C.2   205  SER205      0.2288
    141  O         35.5880   29.8510   24.6810 O.2   205  SER205     -0.2866
    142  CB        37.5830   30.8240   26.4770 C.3   205  SER205      0.2089
    143  OG        37.8530   29.4980   26.8620 O.3   205  SER205     -0.2183
@<TRIPOS>BOND
     1   140   141    2
     2   140   139    1
     3   138   139    1
     4   139   142    1
     5    81    82    1
     6    84    83    2
     7    80    78   am
     8    83    82    1
     9    82    85    1
    10   142   143    1
    11    87    85    1
    12    78    79    2
    13    78    77    1
    14    85    86    1
    15   121   122    2
    16   121   120    1
    17    76    77    1
    18    76    73    1
    19    75    74    2
    20   100    98    1
    21   124   125    1
    22   120   123    1
    23   120   119    1
    24   112   111    2
    25    74    73    1
    26    73    72    1
    27   126   127    2
    28   126   125    1
    29   116   118   ar
    30   116   114   ar
    31   118   117   ar
    32   125   128    1
    33    23    22    2
    34   128   129    1
    35   134   136   ar
    36   134   131   ar
    37    98    99    1
    38    98    95    1
    39   111   119   am
    40   111   110    1
    41    17    16    2
    42   136   137   ar
    43   131   129   ar
    44   131   133   ar
    45   129   130   ar
    46   114   113    1
    47   114   115   ar
    48    72    62   am
    49   117   115   ar
    50   137   135   ar
    51    22    21    1
    52    88    89    1
    53    89    92    1
    54    89    90    1
    55    92    93    1
    56   113   110    1
    57    95    94    1
    58    95    96    1
    59   133   135   ar
    60   133   132   ar
    61   130   132   ar
    62   110   109    1
    63    16    15    1
    64    16    20   am
    65    21    20    1
    66    21    24    1
    67    63    62    2
    68    62    61    1
    69   109   103   am
    70    18    15    1
    71    18    19    1
    72    15    14    1
    73     8     7    2
    74     1     2    1
    75    90    91    2
    76    96   101   am
    77    96    97    2
    78   101   102    1
    79    24    25    1
    80   107   106   ar
    81     5     6    1
    82     5     2    1
    83     7     6    1
    84     7     9   am
    85    61    64    1
    86    61    60    1
    87   103   102    1
    88   103   104    2
    89     2     3    1
    90    30    32   ar
    91    30    27   ar
    92   102   105    1
    93    64    65    1
    94    25    27   ar
    95    25    26   ar
    96    32    33   ar
    97    60    58   am
    98   106   105    1
    99   106   108   ar
   100    27    29   ar
   101    59    58    2
   102     3     4    2
   103    58    57    1
   104    26    28   ar
   105    65    66   ar
   106    65    67   ar
   107    66    68   ar
   108    33    31   ar
   109    29    28   ar
   110    29    31   ar
   111    57    56    1
   112    67    69   ar
   113    56    54   am
   114    68    70   ar
   115    12    13    2
   116    12    11    1
   117    69    70   ar
   118    54    53    1
   119    54    55    2
   120    11    10    1
   121    70    71    1
   122    53    52    1
   123    52    46   am
   124    34    35    1
   125    46    47    2
   126    46    45    1
   127    41    43   ar
   128    41    39   ar
   129    43    42   ar
   130    36    35    1
   131    36    37    2
   132    35    38    1
   133    44    45    1
   134    39    38    1
   135    39    40   ar
   136    45    48    1
   137    42    40   ar
   138    48    49    1
   139    50    49   ar
   140    49    51   ar
