@<TRIPOS>MOLECULE
tmp/2be2A00.pdb
 97 94 0 0 0
SMALL
GASTEIGER

@<TRIPOS>ATOM
      1  N         70.8970  -26.5820   16.9320 N.3   272  PRO272     -0.2116
      2  CA        72.2160  -25.9920   17.1540 C.3   272  PRO272      0.1372
      3  C         73.0060  -25.8370   15.8560 C.2   272  PRO272      0.2244
      4  O         72.9020  -26.6800   14.9630 O.2   272  PRO272     -0.2868
      5  CB        72.8940  -26.9920   18.0950 C.3   272  PRO272      0.0268
      6  CG        71.7480  -27.7980   18.6800 C.3   272  PRO272      0.0207
      7  CD        70.8120  -27.9250   17.5260 C.3   272  PRO272      0.0892
      8  N         75.6450  -21.6840   27.8410 N.3   328  GLU328     -0.1245
      9  CA        76.9720  -22.0350   27.3560 C.3   328  GLU328      0.1567
     10  C         77.0540  -21.4440   25.9600 C.2   328  GLU328      0.2260
     11  O         76.0630  -21.4140   25.2250 O.2   328  GLU328     -0.2867
     12  CB        77.1270  -23.5630   27.3170 C.3   328  GLU328      0.0388
     13  CG        78.5210  -24.0640   26.9480 C.3   328  GLU328      0.1160
     14  CD        78.8610  -25.4120   27.5870 C.2   328  GLU328      0.3649
     15  OE1       79.9880  -25.9040   27.3660 O.co2 328  GLU328     -0.2457
     16  OE2       78.0100  -25.9770   28.3120 O.co2 328  GLU328     -0.2457
     17  N         73.4470  -22.4550   23.8790 N.3   340  GLN340     -0.1245
     18  CA        72.3240  -23.2670   24.3210 C.3   340  GLN340      0.1566
     19  C         72.0850  -22.9570   25.7950 C.2   340  GLN340      0.2260
     20  O         73.0120  -22.6060   26.5220 O.2   340  GLN340     -0.2867
     21  CB        72.5630  -24.7680   24.0940 C.3   340  GLN340      0.0367
     22  CG        73.9420  -25.2850   24.4180 C.3   340  GLN340      0.0905
     23  CD        74.9450  -24.9660   23.3320 C.2   340  GLN340      0.2608
     24  OE1       74.6240  -25.0250   22.1460 O.2   340  GLN340     -0.2717
     25  NE2       76.1710  -24.6430   23.7310 N.am  340  GLN340     -0.0878
     26  N         70.2840  -24.4540   29.2930 N.3   342  TYR342     -0.1241
     27  CA        69.7700  -25.6910   29.8610 C.3   342  TYR342      0.1605
     28  C         69.7950  -25.7650   31.3610 C.2   342  TYR342      0.2264
     29  O         70.4060  -24.9370   32.0360 O.2   342  TYR342     -0.2867
     30  CB        70.5650  -26.8600   29.2890 C.3   342  TYR342      0.0534
     31  CG        72.0540  -26.7480   29.5420 C.ar  342  TYR342     -0.0201
     32  CD1       72.6080  -27.1310   30.7640 C.ar  342  TYR342     -0.0009
     33  CD2       72.9100  -26.2550   28.5580 C.ar  342  TYR342     -0.0009
     34  CE1       73.9780  -27.0300   30.9970 C.ar  342  TYR342      0.0417
     35  CE2       74.2790  -26.1490   28.7820 C.ar  342  TYR342      0.0417
     36  CZ        74.8070  -26.5400   30.0000 C.ar  342  TYR342      0.1957
     37  OH        76.1690  -26.4740   30.2060 O.3   342  TYR342     -0.2866
     38  N         69.5690  -29.3280   32.7920 N.3   344  GLU344     -0.1231
     39  CA        70.1680  -30.6350   33.0310 C.3   344  GLU344      0.1684
     40  C         71.0860  -31.0300   31.8880 C.2   344  GLU344      0.2434
     41  O         70.9220  -30.5770   30.7490 O.2   344  GLU344     -0.2733
     42  CB        69.0820  -31.6920   33.2370 C.3   344  GLU344      0.0402
     43  CG        68.0190  -31.3000   34.2480 C.3   344  GLU344      0.1161
     44  CD        66.8600  -32.2770   34.2830 C.2   344  GLU344      0.3649
     45  OE1       66.5610  -32.8810   33.2330 O.co2 344  GLU344     -0.2457
     46  OE2       66.2530  -32.4390   35.3610 O.co2 344  GLU344     -0.2457
     47  N         72.0790  -31.8780   32.1820 N.am  345  PRO345     -0.2718
     48  CA        73.0110  -32.3130   31.1430 C.3   345  PRO345      0.1535
     49  C         72.1360  -32.9740   30.0850 C.2   345  PRO345      0.2599
     50  O         71.1990  -33.6970   30.4050 O.2   345  PRO345     -0.2715
     51  CB        73.8920  -33.3290   31.8670 C.3   345  PRO345      0.0310
     52  CG        73.8260  -32.8890   33.3030 C.3   345  PRO345      0.0237
     53  CD        72.3720  -32.5440   33.4620 C.3   345  PRO345      0.0939
     54  N         72.4270  -32.7000   28.8280 N.am  346  PHE346     -0.1960
     55  CA        71.6750  -33.2630   27.7020 C.3   346  PHE346      0.1771
     56  C         70.2300  -32.8450   27.4350 C.2   346  PHE346      0.2619
     57  O         69.5920  -33.4090   26.5500 O.2   346  PHE346     -0.2715
     58  CB        71.7370  -34.7980   27.7360 C.3   346  PHE346      0.0574
     59  CG        73.1290  -35.3490   27.6150 C.ar  346  PHE346     -0.0200
     60  CD1       73.8990  -35.5750   28.7500 C.ar  346  PHE346     -0.0042
     61  CD2       73.6940  -35.5860   26.3650 C.ar  346  PHE346     -0.0042
     62  CE1       75.2120  -36.0250   28.6440 C.ar  346  PHE346     -0.0003
     63  CE2       75.0090  -36.0360   26.2470 C.ar  346  PHE346     -0.0003
     64  CZ        75.7680  -36.2550   27.3910 C.ar  346  PHE346     -0.0000
     65  N         69.6980  -31.8720   28.1650 N.am  347  LYS347     -0.1963
     66  CA        68.3200  -31.4580   27.9020 C.3   347  LYS347      0.1728
     67  C         68.2130  -29.9420   27.6450 C.2   347  LYS347      0.2616
     68  O         68.0870  -29.1660   28.5910 O.2   347  LYS347     -0.2715
     69  CB        67.4100  -31.8570   29.0640 C.3   347  LYS347      0.0311
     70  CG        67.6180  -33.2800   29.5540 C.3   347  LYS347      0.0038
     71  CD        66.5630  -33.6720   30.5750 C.3   347  LYS347      0.0206
     72  CE        66.6890  -35.1340   30.9650 C.3   347  LYS347      0.1093
     73  NZ        66.3490  -35.3580   32.3960 N.3   347  LYS347     -0.1314
     74  N         68.2490  -29.5230   26.3750 N.am  348  ASN348     -0.1972
     75  CA        68.1720  -28.0940   26.0450 C.3   348  ASN348      0.1688
     76  C         66.8070  -27.4360   26.2350 C.2   348  ASN348      0.2292
     77  O         65.7870  -27.9960   25.8240 O.2   348  ASN348     -0.2864
     78  CB        68.5900  -27.8510   24.5910 C.3   348  ASN348      0.1181
     79  CG        70.0870  -27.8490   24.4060 C.2   348  ASN348      0.2629
     80  OD1       70.8220  -27.6090   25.3430 O.2   348  ASN348     -0.2716
     81  ND2       70.5440  -28.0960   23.1910 N.am  348  ASN348     -0.0877
     82  N         78.6980  -20.1850   31.0250 N.3   390  LYS390     -0.1245
     83  CA        79.8540  -21.0620   30.8640 C.3   390  LYS390      0.1561
     84  C         80.4330  -20.5660   29.5580 C.2   390  LYS390      0.2260
     85  O         79.8130  -20.7080   28.5060 O.2   390  LYS390     -0.2867
     86  CB        79.4230  -22.5300   30.7510 C.3   390  LYS390      0.0271
     87  CG        79.1100  -23.1980   32.0920 C.3   390  LYS390      0.0035
     88  CD        78.6330  -24.6400   31.9100 C.3   390  LYS390      0.0206
     89  CE        78.4280  -25.3420   33.2540 C.3   390  LYS390      0.1093
     90  NZ        77.8280  -26.7080   33.1310 N.3   390  LYS390     -0.1314
     91  N         84.9400  -22.5000   30.4870 N.3   417  VAL417     -0.1245
     92  CA        84.7730  -23.8300   29.9340 C.3   417  VAL417      0.1561
     93  C         85.9450  -24.1190   29.0160 C.2   417  VAL417      0.2260
     94  O         86.0890  -23.4980   27.9630 O.2   417  VAL417     -0.2867
     95  CB        83.4320  -23.9680   29.1920 C.3   417  VAL417      0.0252
     96  CG1       83.3330  -25.3280   28.5180 C.3   417  VAL417      0.0019
     97  CG2       82.2690  -23.7540   30.1490 C.3   417  VAL417      0.0019
@<TRIPOS>BOND
     1     4     3    2
     2     3     2    1
     3     1     2    1
     4     1     7    1
     5     2     5    1
     6     7     6    1
     7     5     6    1
     8    24    23    2
     9    81    79   am
    10    23    25   am
    11    23    22    1
    12    17    18    1
    13    21    18    1
    14    21    22    1
    15    18    19    1
    16    79    78    1
    17    79    80    2
    18    78    75    1
    19    11    10    2
    20    19    20    2
    21    77    76    2
    22    10     9    1
    23    75    76    1
    24    75    74    1
    25    63    61   ar
    26    63    64   ar
    27    61    59   ar
    28    74    67   am
    29    57    56    2
    30    13    12    1
    31    13    14    1
    32    12     9    1
    33     9     8    1
    34    15    14   ar
    35    64    62   ar
    36    56    55    1
    37    56    65   am
    38    14    16   ar
    39    59    58    1
    40    59    60   ar
    41    67    66    1
    42    67    68    2
    43    55    58    1
    44    55    54    1
    45    66    65    1
    46    66    69    1
    47    94    93    2
    48    85    84    2
    49    96    95    1
    50    33    35   ar
    51    33    31   ar
    52    62    60   ar
    53    35    36   ar
    54    54    49   am
    55    93    92    1
    56    69    70    1
    57    95    92    1
    58    95    97    1
    59    30    31    1
    60    30    27    1
    61    26    27    1
    62    31    32   ar
    63    70    71    1
    64    84    83    1
    65    27    28    1
    66    92    91    1
    67    36    37    1
    68    36    34   ar
    69    49    50    2
    70    49    48    1
    71    71    72    1
    72    41    40    2
    73    86    83    1
    74    86    87    1
    75    32    34   ar
    76    83    82    1
    77    72    73    1
    78    48    51    1
    79    48    47    1
    80    28    29    2
    81    51    52    1
    82    40    47   am
    83    40    39    1
    84    88    87    1
    85    88    89    1
    86    47    53    1
    87    38    39    1
    88    39    42    1
    89    90    89    1
    90    45    44   ar
    91    42    43    1
    92    52    53    1
    93    43    44    1
    94    44    46   ar
