@<TRIPOS>MOLECULE
tmp/2be2A01.pdb
 191 189 0 0 0
SMALL
GASTEIGER

@<TRIPOS>ATOM
      1  N         54.0620  -16.2500   24.1890 N.3    95  PRO95      -0.2116
      2  CA        54.8420  -17.0220   25.1530 C.3    95  PRO95       0.1372
      3  C         55.7460  -18.0300   24.4560 C.2    95  PRO95       0.2244
      4  O         55.3090  -18.7330   23.5470 O.2    95  PRO95      -0.2868
      5  CB        53.7630  -17.6730   26.0060 C.3    95  PRO95       0.0268
      6  CG        52.6840  -17.9250   24.9970 C.3    95  PRO95       0.0207
      7  CD        52.6520  -16.6690   24.1740 C.3    95  PRO95       0.0892
      8  N         57.4650  -22.4170   29.2900 N.3   100  LEU100     -0.1231
      9  CA        56.3530  -23.0890   29.9620 C.3   100  LEU100      0.1693
     10  C         56.8620  -24.0980   30.9940 C.2   100  LEU100      0.2592
     11  O         57.9710  -24.6160   30.8780 O.2   100  LEU100     -0.2718
     12  CB        55.4890  -23.8100   28.9340 C.3   100  LEU100      0.0284
     13  CG        55.0520  -22.9620   27.7440 C.3   100  LEU100      0.0019
     14  CD1       54.3970  -23.8550   26.7210 C.3   100  LEU100      0.0001
     15  CD2       54.1000  -21.8730   28.1970 C.3   100  LEU100      0.0001
     16  N         56.0550  -24.3780   32.0100 N.am  101  LYS101     -0.1966
     17  CA        56.4690  -25.3340   33.0250 C.3   101  LYS101      0.1728
     18  C         55.7270  -26.6520   32.8010 C.2   101  LYS101      0.2616
     19  O         54.6460  -26.6750   32.2010 O.2   101  LYS101     -0.2715
     20  CB        56.1870  -24.7810   34.4220 C.3   101  LYS101      0.0311
     21  CG        56.8210  -23.4230   34.6710 C.3   101  LYS101      0.0038
     22  CD        56.3250  -22.8250   35.9690 C.3   101  LYS101      0.0206
     23  CE        56.7310  -21.3670   36.1110 C.3   101  LYS101      0.1093
     24  NZ        56.1100  -20.7580   37.3240 N.3   101  LYS101     -0.1314
     25  N         56.3400  -27.7380   33.2670 N.am  102  LYS102     -0.1963
     26  CA        55.8120  -29.1020   33.1630 C.3   102  LYS102      0.1728
     27  C         54.3940  -29.2410   33.7140 C.2   102  LYS102      0.2616
     28  O         54.1130  -28.8140   34.8330 O.2   102  LYS102     -0.2715
     29  CB        56.7500  -30.0540   33.9140 C.3   102  LYS102      0.0311
     30  CG        57.1730  -29.5280   35.2940 C.3   102  LYS102      0.0038
     31  CD        58.0910  -30.4940   36.0370 C.3   102  LYS102      0.0206
     32  CE        58.5270  -29.9260   37.3860 C.3   102  LYS102      0.1093
     33  NZ        59.4290  -30.8540   38.1290 N.3   102  LYS102     -0.1314
     34  N         53.5000  -29.8380   32.9310 N.am  103  LYS103     -0.1963
     35  CA        52.1310  -30.0290   33.3900 C.3   103  LYS103      0.1728
     36  C         51.6570  -31.4550   33.1200 C.2   103  LYS103      0.2616
     37  O         51.8920  -32.0000   32.0340 O.2   103  LYS103     -0.2715
     38  CB        51.1910  -29.0490   32.6870 C.3   103  LYS103      0.0311
     39  CG        50.6900  -27.9290   33.5740 C.3   103  LYS103      0.0038
     40  CD        51.8110  -26.9910   33.9860 C.3   103  LYS103      0.0206
     41  CE        51.3180  -25.9670   34.9980 C.3   103  LYS103      0.1093
     42  NZ        52.2930  -24.8650   35.2080 N.3   103  LYS103     -0.1314
     43  N         50.9880  -32.0570   34.1030 N.am  104  LYS104     -0.1963
     44  CA        50.4870  -33.4180   33.9420 C.3   104  LYS104      0.1728
     45  C         49.4020  -33.5090   32.8640 C.2   104  LYS104      0.2617
     46  O         49.4170  -34.4270   32.0450 O.2   104  LYS104     -0.2715
     47  CB        49.9690  -33.9510   35.2790 C.3   104  LYS104      0.0311
     48  CG        51.0910  -34.1550   36.2840 C.3   104  LYS104      0.0038
     49  CD        50.6010  -34.6170   37.6460 C.3   104  LYS104      0.0206
     50  CE        51.7720  -34.6980   38.6230 C.3   104  LYS104      0.1093
     51  NZ        51.3560  -34.9220   40.0360 N.3   104  LYS104     -0.1314
     52  N         48.4720  -32.5570   32.8560 N.am  105  SER105     -0.1936
     53  CA        47.3950  -32.5400   31.8600 C.3   105  SER105      0.2055
     54  C         47.1020  -31.1290   31.3460 C.2   105  SER105      0.2642
     55  O         46.9950  -30.1830   32.1260 O.2   105  SER105     -0.2714
     56  CB        46.1350  -33.1660   32.4590 C.3   105  SER105      0.2130
     57  OG        46.1470  -33.0260   33.8700 O.3   105  SER105     -0.2179
     58  N         46.9570  -31.0200   30.0250 N.am  106  VAL106     -0.1977
     59  CA        46.6980  -29.7450   29.3700 C.3   106  VAL106      0.1596
     60  C         45.5400  -29.8170   28.4050 C.2   106  VAL106      0.2287
     61  O         45.5610  -30.5990   27.4390 O.2   106  VAL106     -0.2864
     62  CB        47.9430  -29.2140   28.5690 C.3   106  VAL106      0.0276
     63  CG1       47.5460  -28.0850   27.6090 C.3   106  VAL106      0.0022
     64  CG2       48.9730  -28.6630   29.5260 C.3   106  VAL106      0.0022
     65  N         42.9010  -27.6940   25.8050 N.3   108  VAL108     -0.1245
     66  CA        42.7630  -26.5300   24.9390 C.3   108  VAL108      0.1561
     67  C         41.2900  -26.1930   24.6870 C.2   108  VAL108      0.2260
     68  O         40.5550  -27.0350   24.1840 O.2   108  VAL108     -0.2867
     69  CB        43.4350  -26.8050   23.5850 C.3   108  VAL108      0.0252
     70  CG1       43.1880  -25.6640   22.6290 C.3   108  VAL108      0.0019
     71  CG2       44.9140  -27.0060   23.7860 C.3   108  VAL108      0.0019
     72  N         46.6610  -23.1570   35.8190 N.3   179  VAL179     -0.1245
     73  CA        47.2710  -22.0650   35.0570 C.3   179  VAL179      0.1561
     74  C         46.5100  -21.9150   33.7500 C.2   179  VAL179      0.2260
     75  O         46.2140  -22.9070   33.0860 O.2   179  VAL179     -0.2867
     76  CB        48.7480  -22.3230   34.6930 C.3   179  VAL179      0.0252
     77  CG1       49.6400  -22.0330   35.8760 C.3   179  VAL179      0.0019
     78  CG2       48.9220  -23.7470   34.2200 C.3   179  VAL179      0.0019
     79  N         46.4240  -19.7610   30.0420 N.3   181  TYR181     -0.1241
     80  CA        47.0270  -18.8660   29.0710 C.3   181  TYR181      0.1605
     81  C         45.9340  -18.4330   28.1140 C.2   181  TYR181      0.2264
     82  O         45.1980  -19.2740   27.5980 O.2   181  TYR181     -0.2867
     83  CB        48.0940  -19.5860   28.2590 C.3   181  TYR181      0.0534
     84  CG        49.3940  -19.7890   28.9740 C.ar  181  TYR181     -0.0201
     85  CD1       49.4870  -20.6360   30.0770 C.ar  181  TYR181     -0.0009
     86  CD2       50.5470  -19.1500   28.5310 C.ar  181  TYR181     -0.0009
     87  CE1       50.7070  -20.8460   30.7190 C.ar  181  TYR181      0.0417
     88  CE2       51.7670  -19.3500   29.1620 C.ar  181  TYR181      0.0417
     89  CZ        51.8430  -20.2000   30.2500 C.ar  181  TYR181      0.1957
     90  OH        53.0630  -20.4190   30.8490 O.3   181  TYR181     -0.2866
     91  N         44.4020  -22.0680   27.0320 N.3   188  TYR188     -0.1227
     92  CA        45.1580  -23.2840   27.3170 C.3   188  TYR188      0.1736
     93  C         45.1800  -23.5090   28.8270 C.2   188  TYR188      0.2595
     94  O         45.8490  -22.7880   29.5680 O.2   188  TYR188     -0.2718
     95  CB        46.5700  -23.1460   26.7380 C.3   188  TYR188      0.0548
     96  CG        46.5560  -22.6740   25.2930 C.ar  188  TYR188     -0.0200
     97  CD1       47.2890  -21.5560   24.8960 C.ar  188  TYR188     -0.0009
     98  CD2       45.7590  -23.3100   24.3380 C.ar  188  TYR188     -0.0009
     99  CE1       47.2240  -21.0770   23.5890 C.ar  188  TYR188      0.0417
    100  CE2       45.6860  -22.8380   23.0270 C.ar  188  TYR188      0.0417
    101  CZ        46.4180  -21.7200   22.6620 C.ar  188  TYR188      0.1957
    102  OH        46.3290  -21.2320   21.3780 O.3   188  TYR188     -0.2866
    103  N         44.4290  -24.5110   29.2730 N.am  189  VAL189     -0.1966
    104  CA        44.3130  -24.8230   30.6950 C.3   189  VAL189      0.1727
    105  C         45.1720  -26.0270   31.0560 C.2   189  VAL189      0.2616
    106  O         45.0330  -27.1020   30.4670 O.2   189  VAL189     -0.2715
    107  CB        42.8380  -25.1290   31.0810 C.3   189  VAL189      0.0290
    108  CG1       42.6100  -24.8420   32.5620 C.3   189  VAL189      0.0023
    109  CG2       41.8890  -24.3100   30.2190 C.3   189  VAL189      0.0023
    110  N         46.0600  -25.8400   32.0280 N.am  190  GLY190     -0.1955
    111  CA        46.9370  -26.9210   32.4480 C.3   190  GLY190      0.1869
    112  C         46.9220  -27.0850   33.9520 C.2   190  GLY190      0.2309
    113  O         46.5830  -26.1450   34.6710 O.2   190  GLY190     -0.2863
    114  N         40.9920  -31.0340   21.4970 N.3   223  LYS223     -0.1245
    115  CA        42.3720  -30.9140   21.9000 C.3   223  LYS223      0.1561
    116  C         43.0370  -32.2720   21.7260 C.2   223  LYS223      0.2260
    117  O         42.7390  -33.2490   22.4200 O.2   223  LYS223     -0.2867
    118  CB        42.4440  -30.4410   23.3890 C.3   223  LYS223      0.0271
    119  CG        42.5400  -31.5300   24.4980 C.3   223  LYS223      0.0035
    120  CD        43.9830  -32.0610   24.6410 C.3   223  LYS223      0.0206
    121  CE        44.1720  -33.2050   25.6550 C.3   223  LYS223      0.1093
    122  NZ        45.4680  -32.9850   26.3810 N.3   223  LYS223     -0.1314
    123  N         46.7390  -33.6790   21.6780 N.3   225  PRO225     -0.2116
    124  CA        48.1890  -33.5140   21.8470 C.3   225  PRO225      0.1372
    125  C         48.8410  -34.4610   20.8280 C.2   225  PRO225      0.2244
    126  O         48.4320  -35.6420   20.7070 O.2   225  PRO225     -0.2868
    127  CB        48.4240  -33.9070   23.3310 C.3   225  PRO225      0.0268
    128  CG        47.0270  -33.6110   23.9690 C.3   225  PRO225      0.0207
    129  CD        46.1010  -34.1640   22.9270 C.3   225  PRO225      0.0892
    130  N         49.9730  -30.4420   20.2730 N.3   227  PHE227     -0.1241
    131  CA        49.2640  -29.3130   19.7380 C.3   227  PHE227      0.1605
    132  C         50.1530  -28.6040   18.7390 C.2   227  PHE227      0.2264
    133  O         51.3170  -28.3840   19.0240 O.2   227  PHE227     -0.2867
    134  CB        48.9350  -28.3580   20.8730 C.3   227  PHE227      0.0534
    135  CG        48.2110  -28.9950   22.0340 C.ar  227  PHE227     -0.0203
    136  CD1       46.9280  -29.4760   21.8910 C.ar  227  PHE227     -0.0042
    137  CD2       48.8000  -29.0690   23.2880 C.ar  227  PHE227     -0.0042
    138  CE1       46.2470  -30.0180   22.9860 C.ar  227  PHE227     -0.0003
    139  CE2       48.1190  -29.6100   24.3780 C.ar  227  PHE227     -0.0003
    140  CZ        46.8500  -30.0810   24.2270 C.ar  227  PHE227     -0.0000
    141  N         51.0200  -25.2940   17.3760 N.3   229  TRP229     -0.1241
    142  CA        50.7440  -23.9200   17.7980 C.3   229  TRP229      0.1605
    143  C         51.7680  -22.8820   17.3900 C.2   229  TRP229      0.2264
    144  O         52.8940  -22.8730   17.8820 O.2   229  TRP229     -0.2867
    145  CB        50.5950  -23.8770   19.3280 C.3   229  TRP229      0.0550
    146  CG        50.3240  -22.5020   19.9030 C.ar  229  TRP229      0.0003
    147  CD1       49.1310  -21.8340   19.9050 C.ar  229  TRP229      0.0946
    148  CD2       51.2740  -21.6250   20.5300 C.ar  229  TRP229      0.0152
    149  NE1       49.2800  -20.5990   20.4920 N.ar  229  TRP229     -0.2442
    150  CE2       50.5840  -20.4430   20.8820 C.ar  229  TRP229      0.0810
    151  CE3       52.6420  -21.7220   20.8240 C.ar  229  TRP229      0.0012
    152  CZ2       51.2130  -19.3670   21.5150 C.ar  229  TRP229      0.0191
    153  CZ3       53.2680  -20.6480   21.4540 C.ar  229  TRP229      0.0001
    154  CH2       52.5520  -19.4870   21.7910 C.ar  229  TRP229      0.0015
    155  N         53.9030  -28.8660   20.4370 N.3   234  LEU234     -0.1231
    156  CA        54.0630  -29.0860   21.8600 C.3   234  LEU234      0.1693
    157  C         53.5770  -30.4520   22.3150 C.2   234  LEU234      0.2592
    158  O         52.4290  -30.8220   22.0800 O.2   234  LEU234     -0.2718
    159  CB        53.3070  -28.0090   22.6390 C.3   234  LEU234      0.0284
    160  CG        53.3370  -26.5750   22.1050 C.3   234  LEU234      0.0019
    161  CD1       52.4730  -25.7230   22.9980 C.3   234  LEU234      0.0001
    162  CD2       54.7500  -26.0300   22.0680 C.3   234  LEU234      0.0001
    163  N         54.4610  -31.1870   22.9790 N.am  235  HIS235     -0.1962
    164  CA        54.1400  -32.5040   23.4990 C.3   235  HIS235      0.1772
    165  C         54.0810  -32.3810   24.9930 C.2   235  HIS235      0.2462
    166  O         54.5180  -31.3730   25.5490 O.2   235  HIS235     -0.2730
    167  CB        55.2320  -33.5030   23.1140 C.3   235  HIS235      0.0785
    168  CG        55.3800  -33.7000   21.6380 C.ar  235  HIS235      0.0821
    169  ND1       54.4180  -34.3160   20.8680 N.ar  235  HIS235     -0.2267
    170  CD2       56.3830  -33.3660   20.7910 C.ar  235  HIS235      0.1154
    171  CE1       54.8220  -34.3540   19.6100 C.ar  235  HIS235      0.1986
    172  NE2       56.0110  -33.7830   19.5360 N.ar  235  HIS235     -0.2212
    173  N         53.5830  -33.4210   25.6720 N.am  236  PRO236     -0.2727
    174  CA        53.5130  -33.2950   27.1410 C.3   236  PRO236      0.1402
    175  C         54.8260  -33.0820   27.8920 C.2   236  PRO236      0.2269
    176  O         54.8330  -32.6480   29.0520 O.2   236  PRO236     -0.2865
    177  CB        52.8710  -34.6210   27.5700 C.3   236  PRO236      0.0296
    178  CG        52.1670  -35.1180   26.3160 C.3   236  PRO236      0.0237
    179  CD        53.1300  -34.7490   25.2280 C.3   236  PRO236      0.0939
    180  N         60.9400  -28.4270   28.7230 N.3   318  TYR318     -0.1241
    181  CA        60.2440  -27.4030   29.4880 C.3   318  TYR318      0.1605
    182  C         61.0180  -26.9150   30.7120 C.2   318  TYR318      0.2264
    183  O         61.9950  -27.5350   31.1360 O.2   318  TYR318     -0.2867
    184  CB        58.8710  -27.9310   29.8970 C.3   318  TYR318      0.0534
    185  CG        57.9710  -28.1250   28.7010 C.ar  318  TYR318     -0.0201
    186  CD1       57.2440  -29.3050   28.5240 C.ar  318  TYR318     -0.0009
    187  CD2       57.8780  -27.1380   27.7200 C.ar  318  TYR318     -0.0009
    188  CE1       56.4480  -29.4940   27.3880 C.ar  318  TYR318      0.0417
    189  CE2       57.0920  -27.3140   26.5890 C.ar  318  TYR318      0.0417
    190  CZ        56.3800  -28.4890   26.4230 C.ar  318  TYR318      0.1957
    191  OH        55.6150  -28.6480   25.2880 O.3   318  TYR318     -0.2866
@<TRIPOS>BOND
     1   141   142    1
     2   143   142    1
     3   143   144    2
     4   142   145    1
     5   132   133    2
     6   132   131    1
     7   145   146    1
     8   172   171   ar
     9   172   170   ar
    10   171   169   ar
    11   131   130    1
    12   131   134    1
    13   146   147   ar
    14   146   148   ar
    15   147   149   ar
    16   155   156    1
    17   149   150   ar
    18   148   151   ar
    19   148   150   ar
    20   126   125    2
    21   170   168   ar
    22   151   153   ar
    23   125   124    1
    24   169   168   ar
    25   134   135    1
    26   150   152   ar
    27   102   101    1
    28   153   154   ar
    29   114   115    1
    30   152   154   ar
    31   168   167    1
    32   123   124    1
    33   123   129    1
    34   116   115    1
    35   116   117    2
    36   124   127    1
    37   156   157    1
    38   156   159    1
    39   136   135   ar
    40   136   138   ar
    41   115   118    1
    42   135   137   ar
    43   162   160    1
    44   158   157    2
    45   160   159    1
    46   160   161    1
    47   157   163   am
    48    70    69    1
    49   101   100   ar
    50   101    99   ar
    51   129   128    1
    52   163   164    1
    53   138   140   ar
    54   100    98   ar
    55   167   164    1
    56   137   139   ar
    57   127   128    1
    58   118   119    1
    59   164   165    1
    60     4     3    2
    61    69    71    1
    62    69    66    1
    63    99    97   ar
    64     7     1    1
    65     7     6    1
    66    68    67    2
    67     1     2    1
    68   140   139   ar
    69    98    96   ar
    70     3     2    1
    71   119   120    1
    72   120   121    1
    73    67    66    1
    74    97    96   ar
    75    66    65    1
    76   165   166    2
    77   165   173   am
    78     6     5    1
    79     2     5    1
    80   179   173    1
    81   179   178    1
    82   191   190    1
    83    96    95    1
    84   121   122    1
    85   173   174    1
    86   178   177    1
    87   190   189   ar
    88   190   188   ar
    89   189   187   ar
    90    14    13    1
    91    95    92    1
    92    91    92    1
    93   174   177    1
    94   174   175    1
    95    92    93    1
    96   188   186   ar
    97    61    60    2
    98    82    81    2
    99    63    62    1
   100   187   185   ar
   101    13    15    1
   102    13    12    1
   103   175   176    2
   104    81    80    1
   105    83    84    1
   106    83    80    1
   107    60    59    1
   108   186   185   ar
   109    86    84   ar
   110    86    88   ar
   111    62    59    1
   112    62    64    1
   113   185   184    1
   114   180   181    1
   115    93   103   am
   116    93    94    2
   117    12     9    1
   118    84    85   ar
   119    80    79    1
   120    88    89   ar
   121   103   104    1
   122     8     9    1
   123    59    58    1
   124   181   184    1
   125   181   182    1
   126     9    10    1
   127    58    54   am
   128    85    87   ar
   129   109   107    1
   130    89    87   ar
   131    89    90    1
   132   106   105    2
   133   104   105    1
   134   104   107    1
   135   182   183    2
   136    11    10    2
   137    10    16   am
   138   105   110   am
   139   107   108    1
   140    54    53    1
   141    54    55    2
   142    53    56    1
   143    53    52    1
   144    16    17    1
   145   110   111    1
   146    37    36    2
   147    46    45    2
   148    19    18    2
   149   111   112    1
   150    56    57    1
   151    38    35    1
   152    38    39    1
   153    18    17    1
   154    18    25   am
   155    52    45   am
   156    45    44    1
   157    34    35    1
   158    34    27   am
   159    17    20    1
   160    75    74    2
   161    36    35    1
   162    36    43   am
   163    26    25    1
   164    26    27    1
   165    26    29    1
   166    39    40    1
   167    27    28    2
   168    74    73    1
   169    29    30    1
   170    44    43    1
   171    44    47    1
   172   112   113    2
   173    40    41    1
   174    78    76    1
   175    20    21    1
   176    21    22    1
   177    76    73    1
   178    76    77    1
   179    41    42    1
   180    73    72    1
   181    47    48    1
   182    30    31    1
   183    22    23    1
   184    31    32    1
   185    23    24    1
   186    48    49    1
   187    32    33    1
   188    49    50    1
   189    50    51    1
