@<TRIPOS>MOLECULE
tmp/2be9B00.pdb
 125 114 0 0 0
SMALL
GASTEIGER

@<TRIPOS>ATOM
      1  N        122.4980   67.1760   34.7300 N.3     2  VAL2       -0.1245
      2  CA       121.7990   68.1290   35.6090 C.3     2  VAL2        0.1561
      3  C        122.7190   68.6480   36.7180 C.2     2  VAL2        0.2260
      4  O        123.5040   67.8880   37.3010 O.2     2  VAL2       -0.2867
      5  CB       120.4650   67.5630   36.2000 C.3     2  VAL2        0.0252
      6  CG1      120.7170   66.5760   37.3380 C.3     2  VAL2        0.0019
      7  CG2      119.5670   68.6980   36.6640 C.3     2  VAL2        0.0019
      8  N        124.3890   70.1070   40.1910 N.3     4  LYS4       -0.1231
      9  CA       124.4460   69.5950   41.5530 C.3     4  LYS4        0.1693
     10  C        123.3900   70.2600   42.4460 C.2     4  LYS4        0.2591
     11  O        122.8930   71.3490   42.1530 O.2     4  LYS4       -0.2718
     12  CB       125.8630   69.7690   42.1340 C.3     4  LYS4        0.0285
     13  CG       126.9660   69.3020   41.1940 C.3     4  LYS4        0.0035
     14  CD       126.8710   67.8140   40.9330 C.3     4  LYS4        0.0206
     15  CE       127.8600   67.4450   39.8080 C.3     4  LYS4        0.1093
     16  NZ       127.7350   65.9840   39.5810 N.3     4  LYS4       -0.1314
     17  N        123.0610   69.5890   43.5390 N.am    5  ILE5       -0.1980
     18  CA       121.9610   69.9880   44.3950 C.3     5  ILE5        0.1595
     19  C        122.5170   70.5050   45.7270 C.2     5  ILE5        0.2287
     20  O        123.4690   69.9420   46.2670 O.2     5  ILE5       -0.2864
     21  CB       120.9430   68.8000   44.5590 C.3     5  ILE5        0.0276
     22  CG1      119.6310   69.2500   45.1870 C.3     5  ILE5        0.0022
     23  CG2      121.5330   67.6030   45.3330 C.3     5  ILE5        0.0022
     24  CD1      118.7990   68.0720   45.7090 C.3     5  ILE5        0.0001
     25  N        119.6120   62.3490   46.0250 N.3    10  VAL10      -0.1245
     26  CA       119.9200   61.9830   44.6620 C.3    10  VAL10       0.1561
     27  C        119.8080   60.4910   44.5600 C.2    10  VAL10       0.2260
     28  O        120.4650   59.7700   45.3050 O.2    10  VAL10      -0.2867
     29  CB       121.3190   62.4260   44.2300 C.3    10  VAL10       0.0252
     30  CG1      121.6220   61.9060   42.8090 C.3    10  VAL10       0.0019
     31  CG2      121.4090   63.9390   44.2830 C.3    10  VAL10       0.0019
     32  N        120.5810   57.7690   41.9990 N.3    12  ASP12      -0.1225
     33  CA       121.4040   57.5040   40.8170 C.3    12  ASP12       0.1805
     34  C        121.2500   56.0350   40.4420 C.2    12  ASP12       0.2597
     35  O        120.6750   55.2540   41.2030 O.2    12  ASP12      -0.2718
     36  CB       122.8610   57.7910   41.1520 C.3    12  ASP12       0.1424
     37  CG       123.7240   58.0910   39.9240 C.2    12  ASP12       0.3668
     38  OD1      123.3780   57.7600   38.7710 O.co2  12  ASP12      -0.2456
     39  OD2      124.7950   58.6790   40.1270 O.co2  12  ASP12      -0.2456
     40  N        121.7340   55.6750   39.2570 N.am   13  HIS13      -0.1975
     41  CA       121.7720   54.2860   38.8040 C.3    13  HIS13       0.1656
     42  C        120.4190   53.5910   38.7400 C.2    13  HIS13       0.2291
     43  O        120.3130   52.4090   39.0730 O.2    13  HIS13      -0.2864
     44  CB       122.7360   53.4720   39.6630 C.3    13  HIS13       0.0771
     45  CG       124.1390   53.9570   39.5760 C.ar   13  HIS13       0.0820
     46  ND1      124.7730   54.5860   40.6250 N.ar   13  HIS13      -0.2267
     47  CD2      125.0150   53.9560   38.5440 C.ar   13  HIS13       0.1154
     48  CE1      125.9850   54.9430   40.2440 C.ar   13  HIS13       0.1986
     49  NE2      126.1570   54.5680   38.9870 N.ar   13  HIS13      -0.2212
     50  N        128.7930   51.6800   33.8470 N.3    44  LYS44      -0.1245
     51  CA       128.5690   50.3160   34.3370 C.3    44  LYS44       0.1561
     52  C        127.2620   49.6700   33.8580 C.2    44  LYS44       0.2260
     53  O        127.1590   48.4430   33.8280 O.2    44  LYS44      -0.2867
     54  CB       128.6870   50.2570   35.8690 C.3    44  LYS44       0.0271
     55  CG       130.1380   50.1110   36.3750 C.3    44  LYS44       0.0035
     56  CD       130.2330   49.9710   37.9150 C.3    44  LYS44       0.0206
     57  CE       130.3930   51.3260   38.6290 C.3    44  LYS44       0.1093
     58  NZ       129.1930   52.2350   38.4930 N.3    44  LYS44      -0.1314
     59  N        118.6460   59.4010   36.3930 N.3    50  ILE50      -0.1245
     60  CA       118.9530   59.9840   37.6730 C.3    50  ILE50       0.1561
     61  C        117.7880   60.8520   38.1320 C.2    50  ILE50       0.2260
     62  O        117.2300   61.6410   37.3480 O.2    50  ILE50      -0.2867
     63  CB       120.2030   60.8750   37.6200 C.3    50  ILE50       0.0252
     64  CG1      121.4180   60.1230   37.0640 C.3    50  ILE50       0.0019
     65  CG2      120.5120   61.4580   39.0040 C.3    50  ILE50       0.0019
     66  CD1      122.5220   61.0720   36.5270 C.3    50  ILE50       0.0001
     67  N        116.6830   63.6990   41.1960 N.3    52  LYS52      -0.1245
     68  CA       117.1660   64.5980   42.2090 C.3    52  LYS52       0.1561
     69  C        115.9890   65.3430   42.8090 C.2    52  LYS52       0.2260
     70  O        115.2370   66.0140   42.0960 O.2    52  LYS52      -0.2867
     71  CB       118.1960   65.5580   41.6120 C.3    52  LYS52       0.0271
     72  CG       119.5580   64.9070   41.3990 C.3    52  LYS52       0.0035
     73  CD       120.5030   65.8400   40.6940 C.3    52  LYS52       0.0206
     74  CE       121.8190   65.1470   40.4010 C.3    52  LYS52       0.1093
     75  NZ       122.9260   66.1300   40.1120 N.3    52  LYS52      -0.1314
     76  N        121.2970   53.7170   43.7030 N.3    74  THR74      -0.1218
     77  CA       122.0830   54.1840   44.8300 C.3    74  THR74       0.1862
     78  C        121.4760   55.4870   45.2880 C.2    74  THR74       0.2287
     79  O        121.0500   56.3170   44.4760 O.2    74  THR74      -0.2866
     80  CB       123.6270   54.3170   44.5310 C.3    74  THR74       0.1770
     81  OG1      123.8390   54.9300   43.2630 O.3    74  THR74      -0.2211
     82  CG2      124.3100   52.9430   44.5060 C.3    74  THR74       0.0375
     83  N        121.7950   58.8530   47.5790 N.3    76  ASN76      -0.1240
     84  CA       122.6990   59.7740   48.2150 C.3    76  ASN76       0.1653
     85  C        121.9150   60.8690   48.8820 C.2    76  ASN76       0.2266
     86  O        121.0670   61.4860   48.2600 O.2    76  ASN76      -0.2867
     87  CB       123.6070   60.4060   47.1680 C.3    76  ASN76       0.1155
     88  CG       124.6000   59.4300   46.5890 C.2    76  ASN76       0.2627
     89  OD1      124.5670   58.2350   46.8620 O.2    76  ASN76      -0.2716
     90  ND2      125.5090   59.9400   45.7950 N.am   76  ASN76      -0.0877
     91  N        122.1570   64.5590   50.3460 N.3    78  VAL78      -0.1245
     92  CA       123.0330   65.6930   50.0860 C.3    78  VAL78       0.1561
     93  C        122.7310   66.8780   50.9970 C.2    78  VAL78       0.2260
     94  O        121.5920   67.3370   51.0700 O.2    78  VAL78      -0.2867
     95  CB       122.9330   66.1520   48.6250 C.3    78  VAL78       0.0252
     96  CG1      123.8800   67.3260   48.3600 C.3    78  VAL78       0.0019
     97  CG2      123.2310   64.9960   47.6810 C.3    78  VAL78       0.0019
     98  N        125.8100   70.7350   49.8230 N.3    81  TYR81      -0.1241
     99  CA       126.5380   70.2820   48.6210 C.3    81  TYR81       0.1605
    100  C        127.3450   68.9900   48.8360 C.2    81  TYR81       0.2264
    101  O        127.7670   68.3600   47.8670 O.2    81  TYR81      -0.2867
    102  CB       127.4260   71.3770   48.0000 C.3    81  TYR81       0.0534
    103  CG       126.6830   72.5880   47.4760 C.ar   81  TYR81      -0.0201
    104  CD1      126.5090   73.7220   48.2790 C.ar   81  TYR81      -0.0009
    105  CD2      126.1700   72.6140   46.1790 C.ar   81  TYR81      -0.0009
    106  CE1      125.8340   74.8430   47.8080 C.ar   81  TYR81       0.0417
    107  CE2      125.4910   73.7300   45.6990 C.ar   81  TYR81       0.0417
    108  CZ       125.3290   74.8410   46.5200 C.ar   81  TYR81       0.1957
    109  OH       124.6690   75.9580   46.0680 O.3    81  TYR81      -0.2866
    110  N        127.6680   65.0590   49.9120 N.3    83  VAL83      -0.1245
    111  CA       126.9610   63.7860   50.1000 C.3    83  VAL83       0.1561
    112  C        127.2670   63.2750   51.5090 C.2    83  VAL83       0.2260
    113  O        128.3820   62.8280   51.7790 O.2    83  VAL83      -0.2867
    114  CB       127.3990   62.7170   49.0610 C.3    83  VAL83       0.0252
    115  CG1      126.6410   61.4050   49.2680 C.3    83  VAL83       0.0019
    116  CG2      127.2350   63.2360   47.6310 C.3    83  VAL83       0.0019
    117  N        125.3310   57.4260   51.9880 N.3    86  LYS86      -0.1245
    118  CA       125.1310   56.5690   50.8100 C.3    86  LYS86       0.1561
    119  C        124.4430   55.2580   51.1980 C.2    86  LYS86       0.2260
    120  O        125.1070   54.2400   51.3630 O.2    86  LYS86      -0.2867
    121  CB       126.4700   56.2420   50.1520 C.3    86  LYS86       0.0271
    122  CG       127.0090   57.3210   49.2370 C.3    86  LYS86       0.0035
    123  CD       127.8560   56.7290   48.1200 C.3    86  LYS86       0.0206
    124  CE       128.1810   57.7820   47.0860 C.3    86  LYS86       0.1093
    125  NZ       129.1490   58.7580   47.6670 N.3    86  LYS86      -0.1314
@<TRIPOS>BOND
     1    53    52    2
     2    50    51    1
     3    52    51    1
     4    51    54    1
     5     1     2    1
     6     2     5    1
     7     2     3    1
     8    54    55    1
     9     5     7    1
    10     5     6    1
    11    55    56    1
    12    59    60    1
    13    66    64    1
    14     3     4    2
    15    64    63    1
    16    62    61    2
    17    63    60    1
    18    63    65    1
    19    60    61    1
    20    56    57    1
    21    58    57    1
    22    47    49   ar
    23    47    45   ar
    24    42    41    1
    25    42    43    2
    26    38    37   ar
    27    41    40    1
    28    41    44    1
    29    49    48   ar
    30    40    34   am
    31    45    44    1
    32    45    46   ar
    33    16    15    1
    34    15    14    1
    35    37    39   ar
    36    37    36    1
    37    75    74    1
    38     8     9    1
    39    48    46   ar
    40    74    73    1
    41    34    33    1
    42    34    35    2
    43    73    72    1
    44    33    36    1
    45    33    32    1
    46    14    13    1
    47    13    12    1
    48    67    68    1
    49    72    71    1
    50     9    12    1
    51     9    10    1
    52    71    68    1
    53    70    69    2
    54    11    10    2
    55    68    69    1
    56    10    17   am
    57    30    29    1
    58    81    80    1
    59    17    18    1
    60    76    77    1
    61    29    31    1
    62    29    26    1
    63    18    21    1
    64    18    19    1
    65    79    78    2
    66    82    80    1
    67    80    77    1
    68    21    22    1
    69    21    23    1
    70    27    26    1
    71    27    28    2
    72    26    25    1
    73    77    78    1
    74    22    24    1
    75   107   105   ar
    76   107   108   ar
    77    19    20    2
    78    90    88   am
    79   109   108    1
    80   105   103   ar
    81   108   106   ar
    82    88    89    2
    83    88    87    1
    84   124   125    1
    85   124   123    1
    86    87    84    1
    87   103   102    1
    88   103   104   ar
    89    83    84    1
    90   116   114    1
    91    97    95    1
    92   106   104   ar
    93   101   100    2
    94   102    99    1
    95   123   122    1
    96    84    85    1
    97    86    85    2
    98    96    95    1
    99    99   100    1
   100    99    98    1
   101    95    92    1
   102   114   115    1
   103   114   111    1
   104   122   121    1
   105   110   111    1
   106    92    91    1
   107    92    93    1
   108   111   112    1
   109   121   118    1
   110   118   119    1
   111   118   117    1
   112    93    94    2
   113   119   120    2
   114   112   113    2
