@<TRIPOS>MOLECULE
tmp/2bedB01.pdb
 156 154 0 0 0
SMALL
GASTEIGER

@<TRIPOS>ATOM
      1  N        185.2490  142.4900   34.2670 N.3    71  TYR71      -0.1241
      2  CA       184.8730  141.2510   33.6010 C.3    71  TYR71       0.1605
      3  C        184.5710  141.3740   32.1240 C.2    71  TYR71       0.2264
      4  O        183.7690  140.6100   31.5980 O.2    71  TYR71      -0.2867
      5  CB       183.6830  140.5530   34.2880 C.3    71  TYR71       0.0534
      6  CG       183.9760  139.9480   35.6430 C.ar   71  TYR71      -0.0201
      7  CD1      184.2460  140.7270   36.7600 C.ar   71  TYR71      -0.0009
      8  CD2      184.0520  138.5610   35.7770 C.ar   71  TYR71      -0.0009
      9  CE1      184.5960  140.1280   37.9780 C.ar   71  TYR71       0.0417
     10  CE2      184.3990  137.9610   36.9770 C.ar   71  TYR71       0.0417
     11  CZ       184.6740  138.7390   38.0720 C.ar   71  TYR71       0.1957
     12  OH       185.0610  138.1120   39.2420 O.3    71  TYR71      -0.2866
     13  N        186.5980  140.6330   29.9520 N.3    73  CYS73      -0.1221
     14  CA       187.2910  139.5060   29.3480 C.3    73  CYS73       0.1808
     15  C        186.3970  138.2610   29.3570 C.2    73  CYS73       0.2601
     16  O        186.5850  137.3500   28.5560 O.2    73  CYS73      -0.2717
     17  CB       188.6230  139.2220   30.0640 C.3    73  CYS73       0.0970
     18  SG       188.5430  138.7740   31.8150 S.3    73  CYS73      -0.0800
     19  N        185.4220  138.2210   30.2610 N.am   74  LEU74      -0.1979
     20  CA       184.4980  137.0940   30.3150 C.3    74  LEU74       0.1596
     21  C        183.2010  137.4490   29.6070 C.2    74  LEU74       0.2287
     22  O        182.1550  136.8760   29.8810 O.2    74  LEU74      -0.2864
     23  CB       184.2050  136.6840   31.7620 C.3    74  LEU74       0.0297
     24  CG       185.3630  136.1760   32.6360 C.3    74  LEU74       0.0022
     25  CD1      184.8470  135.8760   34.0190 C.3    74  LEU74       0.0001
     26  CD2      185.9780  134.9150   32.0320 C.3    74  LEU74       0.0001
     27  N        181.8000  134.4860   28.0760 N.3    77  SER77      -0.1217
     28  CA       181.6250  133.3550   28.9850 C.3    77  SER77       0.1889
     29  C        180.5830  133.6580   30.0510 C.2    77  SER77       0.2288
     30  O        180.7710  133.3400   31.2280 O.2    77  SER77      -0.2866
     31  CB       182.9510  132.9960   29.6680 C.3    77  SER77       0.2089
     32  OG       183.9390  132.6180   28.7280 O.3    77  SER77      -0.2183
     33  N        178.9300  130.7720   31.9020 N.3    80  TRP80      -0.1241
     34  CA       179.7400  130.3160   33.0310 C.3    80  TRP80       0.1605
     35  C        179.5110  131.1100   34.2940 C.2    80  TRP80       0.2264
     36  O        179.3750  130.5270   35.3670 O.2    80  TRP80      -0.2867
     37  CB       181.2470  130.3110   32.7440 C.3    80  TRP80       0.0550
     38  CG       181.7140  129.3000   31.7540 C.ar   80  TRP80       0.0003
     39  CD1      181.9250  129.4790   30.4200 C.ar   80  TRP80       0.0946
     40  CD2      182.0740  127.9430   32.0410 C.ar   80  TRP80       0.0152
     41  NE1      182.4000  128.3170   29.8580 N.ar   80  TRP80      -0.2442
     42  CE2      182.4990  127.3580   30.8320 C.ar   80  TRP80       0.0810
     43  CE3      182.0790  127.1660   33.2050 C.ar   80  TRP80       0.0012
     44  CZ2      182.9270  126.0300   30.7530 C.ar   80  TRP80       0.0191
     45  CZ3      182.5040  125.8490   33.1260 C.ar   80  TRP80       0.0001
     46  CH2      182.9220  125.2950   31.9070 C.ar   80  TRP80       0.0015
     47  N        178.9580  129.2150   37.5130 N.3    84  TRP84      -0.1241
     48  CA       179.8870  129.4020   38.6170 C.3    84  TRP84       0.1605
     49  C        179.2730  129.9960   39.8710 C.2    84  TRP84       0.2264
     50  O        179.4430  129.4670   40.9710 O.2    84  TRP84      -0.2867
     51  CB       181.0730  130.2690   38.1950 C.3    84  TRP84       0.0550
     52  CG       181.9460  129.6880   37.1200 C.ar   84  TRP84       0.0003
     53  CD1      182.2660  128.3720   36.9430 C.ar   84  TRP84       0.0946
     54  CD2      182.7470  130.4210   36.1860 C.ar   84  TRP84       0.0152
     55  NE1      183.2210  128.2430   35.9660 N.ar   84  TRP84      -0.2442
     56  CE2      183.5340  129.4860   35.4840 C.ar   84  TRP84       0.0810
     57  CE3      182.8800  131.7810   35.8790 C.ar   84  TRP84       0.0012
     58  CZ2      184.4430  129.8660   34.4950 C.ar   84  TRP84       0.0191
     59  CZ3      183.7850  132.1570   34.8970 C.ar   84  TRP84       0.0001
     60  CH2      184.5540  131.2030   34.2160 C.ar   84  TRP84       0.0015
     61  N        181.5660  124.8820   25.6080 N.3   129  ALA129     -0.1245
     62  CA       181.8620  125.3140   26.9780 C.3   129  ALA129      0.1562
     63  C        180.6490  126.0710   27.5240 C.2   129  ALA129      0.2260
     64  O        180.1480  125.7590   28.6070 O.2   129  ALA129     -0.2867
     65  CB       183.1020  126.1920   27.0160 C.3   129  ALA129      0.0290
     66  N        187.9910  118.7010   26.4060 N.3   180  ARG180     -0.1245
     67  CA       186.9310  119.5150   26.9940 C.3   180  ARG180      0.1563
     68  C        185.6340  119.2900   26.2380 C.2   180  ARG180      0.2260
     69  O        184.5640  119.2510   26.8430 O.2   180  ARG180     -0.2867
     70  CB       187.2780  121.0040   26.9490 C.3   180  ARG180      0.0307
     71  CG       188.4460  121.4510   27.8150 C.3   180  ARG180      0.0489
     72  CD       188.6720  122.9420   27.6080 C.3   180  ARG180      0.2205
     73  NE       189.0110  123.1900   26.2040 N.pl3 180  ARG180     -0.0865
     74  CZ       188.6440  124.2550   25.5020 C.cat 180  ARG180      0.5346
     75  NH1      189.0210  124.3730   24.2380 N.pl3 180  ARG180      0.1354
     76  NH2      187.8910  125.1930   26.0490 N.pl3 180  ARG180      0.1354
     77  N        197.3250  116.7460   32.3930 N.3   226  HIS226     -0.1241
     78  CA       196.9450  117.9410   33.1220 C.3   226  HIS226      0.1621
     79  C        195.6120  117.7100   33.8220 C.2   226  HIS226      0.2264
     80  O        194.6960  117.1250   33.2500 O.2   226  HIS226     -0.2867
     81  CB       196.8470  119.1260   32.1550 C.3   226  HIS226      0.0745
     82  CG       196.5200  120.4240   32.8210 C.ar  226  HIS226      0.0817
     83  ND1      195.2840  120.6920   33.3660 N.ar  226  HIS226     -0.2268
     84  CD2      197.2840  121.5180   33.0630 C.ar  226  HIS226      0.1154
     85  CE1      195.3000  121.8940   33.9160 C.ar  226  HIS226      0.1986
     86  NE2      196.5020  122.4160   33.7460 N.ar  226  HIS226     -0.2212
     87  N        197.0950  125.3070   43.1510 N.3   275  ASP275     -0.1239
     88  CA       196.0370  126.1480   42.6210 C.3   275  ASP275      0.1674
     89  C        194.6540  125.6960   43.0790 C.2   275  ASP275      0.2266
     90  O        194.2400  124.5570   42.8560 O.2   275  ASP275     -0.2867
     91  CB       196.1100  126.1520   41.1010 C.3   275  ASP275      0.1410
     92  CG       195.0770  127.0530   40.4740 C.2   275  ASP275      0.3668
     93  OD1      193.8860  126.9710   40.8450 O.co2 275  ASP275     -0.2456
     94  OD2      195.4660  127.8470   39.5970 O.co2 275  ASP275     -0.2456
     95  N        191.5040  126.0110   42.0530 N.3   277  CYS277     -0.1221
     96  CA       190.5040  125.3910   41.1870 C.3   277  CYS277      0.1808
     97  C        190.7460  123.9000   41.0400 C.2   277  CYS277      0.2601
     98  O        189.8050  123.1350   40.8290 O.2   277  CYS277     -0.2717
     99  CB       190.4990  126.0250   39.7980 C.3   277  CYS277      0.0970
    100  SG       192.0310  125.8390   38.8850 S.3   277  CYS277     -0.0800
    101  N        192.0060  123.4880   41.1430 N.am  278  TYR278     -0.1976
    102  CA       192.3370  122.0750   41.0170 C.3   278  TYR278      0.1639
    103  C        191.8550  121.2400   42.1880 C.2   278  TYR278      0.2290
    104  O        192.0060  120.0210   42.1850 O.2   278  TYR278     -0.2864
    105  CB       193.8390  121.8880   40.8170 C.3   278  TYR278      0.0560
    106  CG       194.3480  122.5150   39.5400 C.ar  278  TYR278     -0.0198
    107  CD1      195.5360  123.2300   39.5190 C.ar  278  TYR278     -0.0009
    108  CD2      193.6310  122.4000   38.3560 C.ar  278  TYR278     -0.0009
    109  CE1      195.9930  123.8180   38.3610 C.ar  278  TYR278      0.0417
    110  CE2      194.0830  122.9830   37.1960 C.ar  278  TYR278      0.0417
    111  CZ       195.2620  123.6930   37.2070 C.ar  278  TYR278      0.1957
    112  OH       195.7000  124.3030   36.0600 O.3   278  TYR278     -0.2866
    113  N        189.2280  119.8300   39.9690 N.3   281  TRP281     -0.1241
    114  CA       189.6400  119.1350   38.7590 C.3   281  TRP281      0.1605
    115  C        190.4820  117.9020   39.1030 C.2   281  TRP281      0.2264
    116  O        190.2440  116.8150   38.5690 O.2   281  TRP281     -0.2867
    117  CB       190.3990  120.0960   37.8440 C.3   281  TRP281      0.0550
    118  CG       189.5750  121.2940   37.4120 C.ar  281  TRP281      0.0003
    119  CD1      189.9130  122.6080   37.5590 C.ar  281  TRP281      0.0946
    120  CD2      188.3200  121.2820   36.7050 C.ar  281  TRP281      0.0152
    121  NE1      188.9580  123.4110   36.9840 N.ar  281  TRP281     -0.2442
    122  CE2      187.9710  122.6260   36.4530 C.ar  281  TRP281      0.0810
    123  CE3      187.4630  120.2690   36.2590 C.ar  281  TRP281      0.0012
    124  CZ2      186.8060  122.9860   35.7710 C.ar  281  TRP281      0.0191
    125  CZ3      186.2990  120.6310   35.5770 C.ar  281  TRP281      0.0001
    126  CH2      185.9850  121.9780   35.3430 C.ar  281  TRP281      0.0015
    127  N        187.7710  135.5530   42.1470 N.3   337  ASP337     -0.1239
    128  CA       186.9730  135.4890   40.9320 C.3   337  ASP337      0.1674
    129  C        185.9740  134.3530   41.0890 C.2   337  ASP337      0.2266
    130  O        186.1980  133.4180   41.8620 O.2   337  ASP337     -0.2867
    131  CB       187.8630  135.2970   39.6930 C.3   337  ASP337      0.1410
    132  CG       188.7200  134.0430   39.7620 C.2   337  ASP337      0.3668
    133  OD1      188.1660  132.9270   39.8000 O.co2 337  ASP337     -0.2456
    134  OD2      189.9630  134.1780   39.7740 O.co2 337  ASP337     -0.2456
    135  N        185.2930  131.9470   39.2390 N.3   339  TYR339     -0.1227
    136  CA       185.8390  130.6530   38.8450 C.3   339  TYR339      0.1736
    137  C        186.3720  129.9110   40.0670 C.2   339  TYR339      0.2595
    138  O        185.9220  128.8120   40.3770 O.2   339  TYR339     -0.2718
    139  CB       186.9650  130.8410   37.8210 C.3   339  TYR339      0.0548
    140  CG       187.6930  129.5650   37.4490 C.ar  339  TYR339     -0.0200
    141  CD1      187.0770  128.5520   36.7190 C.ar  339  TYR339     -0.0009
    142  CD2      188.9990  129.3630   37.8690 C.ar  339  TYR339     -0.0009
    143  CE1      187.7540  127.3700   36.4280 C.ar  339  TYR339      0.0417
    144  CE2      189.6780  128.1990   37.5840 C.ar  339  TYR339      0.0417
    145  CZ       189.0570  127.2070   36.8710 C.ar  339  TYR339      0.1957
    146  OH       189.7590  126.0550   36.6320 O.3   339  TYR339     -0.2866
    147  N        187.3350  130.5090   40.7590 N.am  340  HIS340     -0.1975
    148  CA       187.8920  129.8610   41.9340 C.3   340  HIS340      0.1656
    149  C        186.8730  129.7270   43.0440 C.2   340  HIS340      0.2291
    150  O        186.9270  128.7730   43.8230 O.2   340  HIS340     -0.2864
    151  CB       189.1290  130.5970   42.4450 C.3   340  HIS340      0.0771
    152  CG       190.2630  130.6110   41.4720 C.ar  340  HIS340      0.0820
    153  ND1      190.3290  131.4900   40.4140 N.ar  340  HIS340     -0.2267
    154  CD2      191.3660  129.8300   41.3810 C.ar  340  HIS340      0.1154
    155  CE1      191.4250  131.2510   39.7130 C.ar  340  HIS340      0.1986
    156  NE2      192.0710  130.2480   40.2800 N.ar  340  HIS340     -0.2212
@<TRIPOS>BOND
     1    75    74    1
     2    74    76    1
     3    74    73    2
     4    61    62    1
     5    73    72    1
     6    68    69    2
     7    68    67    1
     8    66    67    1
     9    70    67    1
    10    70    71    1
    11    62    65    1
    12    62    63    1
    13    63    64    2
    14    72    71    1
    15    27    28    1
    16    16    15    2
    17    32    31    1
    18    28    31    1
    19    28    29    1
    20    14    15    1
    21    14    13    1
    22    14    17    1
    23    15    19   am
    24    21    22    2
    25    21    20    1
    26    41    39   ar
    27    41    42   ar
    28    29    30    2
    29    17    18    1
    30    19    20    1
    31    20    23    1
    32    39    38   ar
    33    44    42   ar
    34    44    46   ar
    35    42    40   ar
    36     4     3    2
    37    38    40   ar
    38    38    37    1
    39    23    24    1
    40    33    34    1
    41    46    45   ar
    42    26    24    1
    43    40    43   ar
    44     3     2    1
    45    81    82    1
    46    81    78    1
    47    77    78    1
    48    24    25    1
    49    37    34    1
    50    82    84   ar
    51    82    83   ar
    52    34    35    1
    53    84    86   ar
    54    78    79    1
    55    45    43   ar
    56    80    79    2
    57    83    85   ar
    58     2     1    1
    59     2     5    1
    60    86    85   ar
    61    60    58   ar
    62    60    59   ar
    63     5     6    1
    64    35    36    2
    65    58    56   ar
    66    59    57   ar
    67   126   125   ar
    68   126   124   ar
    69    56    55   ar
    70    56    54   ar
    71   125   123   ar
    72     6     8   ar
    73     6     7   ar
    74   124   122   ar
    75     8    10   ar
    76    57    54   ar
    77    55    53   ar
    78   112   111    1
    79    54    52   ar
    80   123   120   ar
    81   143   141   ar
    82   143   145   ar
    83   122   120   ar
    84   122   121   ar
    85   146   145    1
    86   120   118   ar
    87   141   140   ar
    88     7     9   ar
    89   145   144   ar
    90    53    52   ar
    91    10    11   ar
    92   121   119   ar
    93    52    51    1
    94   110   111   ar
    95   110   108   ar
    96   111   109   ar
    97   118   119   ar
    98   118   117    1
    99   140   139    1
   100   140   142   ar
   101    47    48    1
   102   144   142   ar
   103   139   136    1
   104   117   114    1
   105     9    11   ar
   106    11    12    1
   107    51    48    1
   108   108   106   ar
   109   109   107   ar
   110   116   115    2
   111    48    49    1
   112   114   115    1
   113   114   113    1
   114   136   135    1
   115   136   137    1
   116   100    99    1
   117   107   106   ar
   118   106   105    1
   119    94    92   ar
   120   131   132    1
   121   131   128    1
   122   155   156   ar
   123   155   153   ar
   124   132   134   ar
   125   132   133   ar
   126    99    96    1
   127    49    50    2
   128   137   138    2
   129   137   147   am
   130   156   154   ar
   131   153   152   ar
   132    92    93   ar
   133    92    91    1
   134   147   148    1
   135   105   102    1
   136    98    97    2
   137   128   129    1
   138   128   127    1
   139   102   101    1
   140   102   103    1
   141    97   101   am
   142    97    96    1
   143   129   130    2
   144    91    88    1
   145    96    95    1
   146   154   152   ar
   147   152   151    1
   148   148   151    1
   149   148   149    1
   150   104   103    2
   151    88    89    1
   152    88    87    1
   153    90    89    2
   154   149   150    2
