@<TRIPOS>MOLECULE
tmp/2beiA00.pdb
 201 196 0 0 0
SMALL
GASTEIGER

@<TRIPOS>ATOM
      1  N         -0.8830   55.4100   15.3860 N.3    22  LEU22      -0.1245
      2  CA        -1.8650   54.7620   16.2900 C.3    22  LEU22       0.1561
      3  C         -1.9320   55.5140   17.6210 C.2    22  LEU22       0.2260
      4  O         -3.0320   55.7260   18.1480 O.2    22  LEU22      -0.2867
      5  CB        -1.5470   53.2620   16.4560 C.3    22  LEU22       0.0270
      6  CG        -2.4450   52.5570   17.5180 C.3    22  LEU22       0.0019
      7  CD1       -3.9130   52.5480   17.1030 C.3    22  LEU22       0.0001
      8  CD2       -1.9040   51.1360   17.7070 C.3    22  LEU22       0.0001
      9  N         -4.1470   58.4770   17.0170 N.3    25  PHE25      -0.1227
     10  CA        -5.5450   57.9820   16.8940 C.3    25  PHE25       0.1736
     11  C         -6.1520   57.7270   18.2690 C.2    25  PHE25       0.2595
     12  O         -7.3150   58.0670   18.5040 O.2    25  PHE25      -0.2718
     13  CB        -5.6250   56.6860   16.0740 C.3    25  PHE25       0.0547
     14  CG        -7.0370   56.1480   15.8680 C.ar   25  PHE25      -0.0202
     15  CD1       -7.8040   56.5660   14.7980 C.ar   25  PHE25      -0.0042
     16  CD2       -7.5820   55.1960   16.7510 C.ar   25  PHE25      -0.0042
     17  CE1       -9.1080   56.0690   14.6040 C.ar   25  PHE25      -0.0003
     18  CE2       -8.8840   54.6840   16.5510 C.ar   25  PHE25      -0.0003
     19  CZ        -9.6510   55.1570   15.5050 C.ar   25  PHE25      -0.0000
     20  N         -5.3730   57.1050   19.1440 N.am   26  GLU26      -0.1979
     21  CA        -5.8370   56.7750   20.5170 C.3    26  GLU26       0.1602
     22  C         -5.7790   57.9450   21.5090 C.2    26  GLU26       0.2287
     23  O         -6.3140   57.8450   22.6070 O.2    26  GLU26      -0.2864
     24  CB        -5.0890   55.5550   21.0560 C.3    26  GLU26       0.0415
     25  CG        -5.4540   54.2840   20.2760 C.3    26  GLU26       0.1163
     26  CD        -5.0140   52.9650   20.9300 C.2    26  GLU26       0.3649
     27  OE1       -3.8910   52.8780   21.4660 O.co2  26  GLU26      -0.2457
     28  OE2       -5.8000   51.9940   20.8780 O.co2  26  GLU26      -0.2457
     29  N         -2.2600   40.7190   21.6130 N.3    78  LEU78      -0.1231
     30  CA        -2.1270   41.6530   20.4680 C.3    78  LEU78       0.1693
     31  C         -2.2160   43.0600   21.0540 C.2    78  LEU78       0.2592
     32  O         -3.2660   43.5000   21.5230 O.2    78  LEU78      -0.2718
     33  CB        -3.1760   41.4100   19.3760 C.3    78  LEU78       0.0284
     34  CG        -3.1630   42.3370   18.1280 C.3    78  LEU78       0.0019
     35  CD1       -1.8140   42.3370   17.4140 C.3    78  LEU78       0.0001
     36  CD2       -4.2310   41.8620   17.1320 C.3    78  LEU78       0.0001
     37  N         -1.0720   43.7180   21.0930 N.am   79  GLU79      -0.1966
     38  CA        -0.9460   45.0310   21.7300 C.3    79  GLU79       0.1733
     39  C         -1.3940   46.1940   20.8120 C.2    79  GLU79       0.2616
     40  O         -2.2030   47.0390   21.2290 O.2    79  GLU79      -0.2715
     41  CB         0.5100   45.2230   22.1760 C.3    79  GLU79       0.0429
     42  CG         0.9350   46.6390   22.6270 C.3    79  GLU79       0.1163
     43  CD         0.5650   46.9690   24.0810 C.2    79  GLU79       0.3649
     44  OE1        0.3800   46.0540   24.9120 O.co2  79  GLU79      -0.2457
     45  OE2        0.4490   48.1650   24.3880 O.co2  79  GLU79      -0.2457
     46  N         -0.8400   46.2580   19.6000 N.am   80  ASP80      -0.1957
     47  CA        -1.1590   47.3450   18.6450 C.3    80  ASP80       0.1840
     48  C         -1.7240   46.7080   17.3950 C.2    80  ASP80       0.2622
     49  O         -1.2050   45.6730   16.9360 O.2    80  ASP80      -0.2715
     50  CB         0.1270   48.0710   18.2060 C.3    80  ASP80       0.1450
     51  CG         0.5910   49.1150   19.1900 C.2    80  ASP80       0.3671
     52  OD1        0.0780   49.1540   20.3220 O.co2  80  ASP80      -0.2456
     53  OD2        1.4500   49.9400   18.8020 O.co2  80  ASP80      -0.2456
     54  N         -2.7490   47.3180   16.8010 N.am   81  ILE81      -0.1963
     55  CA        -3.1190   46.9800   15.4060 C.3    81  ILE81       0.1727
     56  C         -3.6500   48.2840   14.7520 C.2    81  ILE81       0.2616
     57  O         -4.4110   49.0480   15.3690 O.2    81  ILE81      -0.2715
     58  CB        -4.1270   45.8280   15.2760 C.3    81  ILE81       0.0290
     59  CG1       -4.6280   45.6640   13.8140 C.3    81  ILE81       0.0022
     60  CG2       -5.2800   46.0200   16.2640 C.3    81  ILE81       0.0023
     61  CD1       -5.2040   44.2760   13.5430 C.3    81  ILE81       0.0001
     62  N         -3.1660   48.5390   13.5450 N.am   82  TYR82      -0.1960
     63  CA        -3.4500   49.8140   12.8920 C.3    82  TYR82       0.1771
     64  C         -3.2930   49.6800   11.4070 C.2    82  TYR82       0.2619
     65  O         -2.3110   49.1130   10.9160 O.2    82  TYR82      -0.2715
     66  CB        -2.4990   50.8960   13.4060 C.3    82  TYR82       0.0574
     67  CG        -2.6870   52.2430   12.7200 C.ar   82  TYR82      -0.0198
     68  CD1       -3.6090   53.1720   13.2230 C.ar   82  TYR82      -0.0009
     69  CD2       -1.9320   52.5860   11.5810 C.ar   82  TYR82      -0.0009
     70  CE1       -3.7970   54.4400   12.5800 C.ar   82  TYR82       0.0417
     71  CE2       -2.1120   53.8520   10.9270 C.ar   82  TYR82       0.0417
     72  CZ        -3.0520   54.7430   11.4400 C.ar   82  TYR82       0.1957
     73  OH        -3.2500   55.9530   10.8110 O.3    82  TYR82      -0.2866
     74  N         -4.2500   50.2660   10.6900 N.am   83  VAL83      -0.1977
     75  CA        -4.2200   50.3280    9.2230 C.3    83  VAL83       0.1596
     76  C         -4.4130   51.7890    8.8500 C.2    83  VAL83       0.2287
     77  O         -5.2400   52.4720    9.4520 O.2    83  VAL83      -0.2864
     78  CB        -5.3790   49.4660    8.5970 C.3    83  VAL83       0.0276
     79  CG1       -5.4320   49.6010    7.1120 C.3    83  VAL83       0.0022
     80  CG2       -5.1760   47.9580    8.9460 C.3    83  VAL83       0.0022
     81  N         -6.5560   52.9160    3.6100 N.3    86  TYR86      -0.1227
     82  CA        -6.6050   51.4550    3.4100 C.3    86  TYR86       0.1736
     83  C         -7.5570   50.6570    4.2710 C.2    86  TYR86       0.2595
     84  O         -7.5260   49.4230    4.2420 O.2    86  TYR86      -0.2718
     85  CB        -5.1770   50.8580    3.5180 C.3    86  TYR86       0.0548
     86  CG        -4.3100   51.3900    2.4220 C.ar   86  TYR86      -0.0200
     87  CD1       -4.3720   50.8530    1.1400 C.ar   86  TYR86      -0.0009
     88  CD2       -3.4850   52.4810    2.6340 C.ar   86  TYR86      -0.0009
     89  CE1       -3.5930   51.3750    0.1090 C.ar   86  TYR86       0.0417
     90  CE2       -2.7160   53.0110    1.6100 C.ar   86  TYR86       0.0417
     91  CZ        -2.7830   52.4360    0.3550 C.ar   86  TYR86       0.1957
     92  OH        -2.0130   52.9390   -0.6660 O.3    86  TYR86      -0.2866
     93  N         -8.4120   51.3350    5.0330 N.am   87  ARG87      -0.1966
     94  CA        -9.3570   50.6640    5.9040 C.3    87  ARG87       0.1729
     95  C        -10.5810   50.1340    5.1430 C.2    87  ARG87       0.2616
     96  O        -10.8900   50.6270    4.0540 O.2    87  ARG87      -0.2715
     97  CB        -9.8040   51.6120    7.0160 C.3    87  ARG87       0.0348
     98  CG        -8.6280   51.9390    7.9650 C.3    87  ARG87       0.0492
     99  CD        -9.0590   52.9280    9.0760 C.3    87  ARG87       0.2205
    100  NE        -7.8410   53.3860    9.7600 N.pl3  87  ARG87      -0.0865
    101  CZ        -7.6940   54.5730   10.3050 C.cat  87  ARG87       0.5346
    102  NH1       -8.7150   55.4420   10.3260 N.pl3  87  ARG87       0.1354
    103  NH2       -6.5170   54.8810   10.8380 N.pl3  87  ARG87       0.1354
    104  N        -11.2660   49.1650    5.7320 N.am   88  GLY88      -0.1955
    105  CA       -12.4390   48.5500    5.0970 C.3    88  GLY88       0.1869
    106  C        -12.1580   47.8740    3.7460 C.2    88  GLY88       0.2309
    107  O        -12.9780   47.9210    2.8020 O.2    88  GLY88      -0.2863
    108  N        -10.4170   44.7190    4.1950 N.3    90  GLY90      -0.1210
    109  CA       -10.0240   43.4270    4.7950 C.3    90  GLY90       0.1956
    110  C         -8.6590   43.2720    5.4330 C.2    90  GLY90       0.2612
    111  O         -8.3270   42.1920    5.8970 O.2    90  GLY90      -0.2717
    112  N         -7.8600   44.3360    5.4350 N.am   91  ILE91      -0.1965
    113  CA        -6.4750   44.2670    5.9050 C.3    91  ILE91       0.1727
    114  C         -6.3730   44.0030    7.3970 C.2    91  ILE91       0.2617
    115  O         -5.5680   43.1640    7.8190 O.2    91  ILE91      -0.2715
    116  CB        -5.6770   45.5340    5.4930 C.3    91  ILE91       0.0290
    117  CG1       -5.5980   45.6220    3.9800 C.3    91  ILE91       0.0022
    118  CG2       -4.2560   45.5130    6.0700 C.3    91  ILE91       0.0023
    119  CD1       -4.9390   46.9220    3.4610 C.3    91  ILE91       0.0001
    120  N         -7.1730   44.7160    8.2010 N.am   92  GLY92      -0.1940
    121  CA        -7.1580   44.5020    9.6500 C.3    92  GLY92       0.2014
    122  C         -7.5680   43.0650    9.9860 C.2    92  GLY92       0.2639
    123  O         -6.9770   42.4230   10.8530 O.2    92  GLY92      -0.2714
    124  N         -8.5890   42.5610    9.2970 N.am   93  SER93      -0.1949
    125  CA        -9.0310   41.1540    9.5000 C.3    93  SER93       0.1924
    126  C         -7.9100   40.1680    9.1410 C.2    93  SER93       0.2314
    127  O         -7.7520   39.1140    9.7920 O.2    93  SER93      -0.2863
    128  CB       -10.2660   40.8470    8.6400 C.3    93  SER93       0.2116
    129  OG       -11.3800   41.6140    9.0530 O.3    93  SER93      -0.2180
    130  N         -6.6010   40.8400   23.6860 N.3   113  LEU113     -0.1231
    131  CA        -6.3110   42.2270   23.3870 C.3   113  LEU113      0.1693
    132  C         -7.1050   43.1470   24.2990 C.2   113  LEU113      0.2592
    133  O         -8.0110   42.6840   25.0030 O.2   113  LEU113     -0.2718
    134  CB        -6.5230   42.5050   21.9020 C.3   113  LEU113      0.0284
    135  CG        -7.8550   42.3160   21.1910 C.3   113  LEU113      0.0019
    136  CD1       -8.8240   43.4060   21.6300 C.3   113  LEU113      0.0001
    137  CD2       -7.6370   42.4070   19.6840 C.3   113  LEU113      0.0001
    138  N         -6.7220   44.4250   24.3270 N.am  114  ALA114     -0.1966
    139  CA        -7.4500   45.4390   25.0640 C.3   114  ALA114      0.1728
    140  C         -7.8820   46.4900   24.0570 C.2   114  ALA114      0.2616
    141  O         -7.1530   46.7880   23.1000 O.2   114  ALA114     -0.2715
    142  CB        -6.5660   46.0590   26.1740 C.3   114  ALA114      0.0334
    143  N         -9.0880   47.0130   24.2210 N.am  115  VAL115     -0.1977
    144  CA        -9.5630   48.0750   23.3240 C.3   115  VAL115      0.1596
    145  C        -10.4130   49.0450   24.0960 C.2   115  VAL115      0.2287
    146  O        -11.1210   48.6560   25.0100 O.2   115  VAL115     -0.2864
    147  CB       -10.3210   47.4890   22.0850 C.3   115  VAL115      0.0276
    148  CG1      -11.3540   46.5680   22.5210 C.3   115  VAL115      0.0022
    149  CG2      -10.8590   48.5760   21.1400 C.3   115  VAL115      0.0022
    150  N        -14.0870   52.9840   20.9440 N.3   119  ASN119     -0.1240
    151  CA       -13.7400   52.4450   19.6250 C.3   119  ASN119      0.1653
    152  C        -14.6400   51.2770   19.2400 C.2   119  ASN119      0.2266
    153  O        -14.1930   50.1290   19.1510 O.2   119  ASN119     -0.2867
    154  CB       -12.2670   52.0510   19.6060 C.3   119  ASN119      0.1155
    155  CG       -11.7450   51.8300   18.2000 C.2   119  ASN119      0.2627
    156  OD1      -12.5030   51.8030   17.2130 O.2   119  ASN119     -0.2716
    157  ND2      -10.4500   51.6440   18.1080 N.am  119  ASN119     -0.0877
    158  N        -16.1860   50.5190   16.5110 N.3   121  ARG121     -0.1231
    159  CA       -15.9980   49.8330   15.2270 C.3   121  ARG121      0.1694
    160  C        -14.9740   48.7220   15.3320 C.2   121  ARG121      0.2591
    161  O        -15.1220   47.6660   14.6980 O.2   121  ARG121     -0.2718
    162  CB       -15.6230   50.8080   14.1230 C.3   121  ARG121      0.0321
    163  CG       -16.7970   51.7520   13.6680 C.3   121  ARG121      0.0489
    164  CD       -16.3390   52.7110   12.6190 C.3   121  ARG121      0.2205
    165  NE       -15.4050   53.7090   13.1700 N.pl3 121  ARG121     -0.0865
    166  CZ       -14.8400   54.6810   12.4590 C.cat 121  ARG121      0.5346
    167  NH1      -15.1000   54.7810   11.1630 N.pl3 121  ARG121      0.1354
    168  NH2      -14.0100   55.5650   13.0320 N.pl3 121  ARG121      0.1354
    169  N        -13.9160   48.9660   16.1020 N.am  122  ALA122     -0.1980
    170  CA       -12.9490   47.9060   16.3970 C.3   122  ALA122      0.1597
    171  C        -13.5600   46.7980   17.2180 C.2   122  ALA122      0.2287
    172  O        -13.3930   45.6160   16.9150 O.2   122  ALA122     -0.2864
    173  CB       -11.7280   48.4850   17.1690 C.3   122  ALA122      0.0319
    174  N        -16.6670   45.9150   17.4990 N.3   123  ASP123     -0.1225
    175  CA       -17.5880   45.1820   16.6250 C.3   123  ASP123      0.1805
    176  C        -16.8530   44.2030   15.6970 C.2   123  ASP123      0.2598
    177  O        -17.2950   43.0670   15.5250 O.2   123  ASP123     -0.2718
    178  CB       -18.4780   46.1370   15.8380 C.3   123  ASP123      0.1424
    179  CG       -19.5320   46.8200   16.7310 C.2   123  ASP123      0.3668
    180  OD1      -19.9440   46.2440   17.7720 O.co2 123  ASP123     -0.2456
    181  OD2      -19.9260   47.9540   16.4070 O.co2 123  ASP123     -0.2456
    182  N        -15.7210   44.6150   15.1330 N.am  124  LEU124     -0.1966
    183  CA       -14.9500   43.6950   14.2900 C.3   124  LEU124      0.1728
    184  C        -14.4450   42.4780   15.0650 C.2   124  LEU124      0.2616
    185  O        -14.6180   41.3170   14.6140 O.2   124  LEU124     -0.2715
    186  CB       -13.7880   44.4040   13.5580 C.3   124  LEU124      0.0311
    187  CG       -12.8500   43.4660   12.7910 C.3   124  LEU124      0.0022
    188  CD1      -13.5750   42.6840   11.7030 C.3   124  LEU124      0.0001
    189  CD2      -11.6650   44.2520   12.1860 C.3   124  LEU124      0.0001
    190  N        -13.8220   42.7280   16.2150 N.am  125  TYR125     -0.1974
    191  CA       -13.3340   41.6200   17.0620 C.3   125  TYR125      0.1639
    192  C        -14.4790   40.6760   17.4270 C.2   125  TYR125      0.2290
    193  O        -14.3260   39.4720   17.3120 O.2   125  TYR125     -0.2864
    194  CB       -12.6450   42.1180   18.3240 C.3   125  TYR125      0.0560
    195  CG       -11.5440   43.1450   18.0890 C.ar  125  TYR125     -0.0198
    196  CD1      -10.7770   43.1320   16.8980 C.ar  125  TYR125     -0.0009
    197  CD2      -11.2770   44.1180   19.0490 C.ar  125  TYR125     -0.0009
    198  CE1       -9.7690   44.0830   16.7130 C.ar  125  TYR125      0.0417
    199  CE2      -10.2850   45.0730   18.8590 C.ar  125  TYR125      0.0417
    200  CZ        -9.5310   45.0370   17.7000 C.ar  125  TYR125      0.1957
    201  OH        -8.5450   46.0090   17.5340 O.3   125  TYR125     -0.2866
@<TRIPOS>BOND
     1    92    91    1
     2    89    91   ar
     3    89    87   ar
     4    91    90   ar
     5    87    86   ar
     6    90    88   ar
     7    86    88   ar
     8    86    85    1
     9   107   106    2
    10    82    85    1
    11    82    81    1
    12    82    83    1
    13   119   117    1
    14   106   105    1
    15   117   116    1
    16    96    95    2
    17   108   109    1
    18    84    83    2
    19    83    93   am
    20   109   110    1
    21    93    94    1
    22   105   104    1
    23    95   104   am
    24    95    94    1
    25   110   112   am
    26   110   111    2
    27   112   113    1
    28   116   113    1
    29   116   118    1
    30    94    97    1
    31   113   114    1
    32    97    98    1
    33    79    78    1
    34   114   115    2
    35   114   120   am
    36    98    99    1
    37   120   121    1
    38    78    80    1
    39    78    75    1
    40   128   129    1
    41   128   125    1
    42    76    75    1
    43    76    77    2
    44    99   100    1
    45   126   125    1
    46   126   127    2
    47    75    74    1
    48   124   125    1
    49   124   122   am
    50   121   122    1
    51   100   101    2
    52   122   123    2
    53   101   102    1
    54   101   103    1
    55    74    64   am
    56    73    72    1
    57    65    64    2
    58    71    72   ar
    59    71    69   ar
    60   167   166    1
    61    64    63    1
    62    72    70   ar
    63    69    67   ar
    64   188   187    1
    65   189   187    1
    66   166   168    1
    67   166   165    2
    68    70    68   ar
    69   164   165    1
    70   164   163    1
    71    67    68   ar
    72    67    66    1
    73   187   186    1
    74    63    66    1
    75    63    62    1
    76    61    59    1
    77    62    56   am
    78   186   183    1
    79   163   162    1
    80    59    58    1
    81   162   159    1
    82   183   184    1
    83   183   182    1
    84    17    15   ar
    85    17    19   ar
    86   185   184    2
    87   161   160    2
    88    56    57    2
    89    56    55    1
    90    15    14   ar
    91   184   190   am
    92   182   176   am
    93   159   160    1
    94   159   158    1
    95    58    55    1
    96    58    60    1
    97   160   169   am
    98     1     2    1
    99    55    54    1
   100    19    18   ar
   101   177   176    2
   102   176   175    1
   103   178   175    1
   104   178   179    1
   105    14    13    1
   106    14    16   ar
   107    13    10    1
   108   169   170    1
   109   190   191    1
   110     2     5    1
   111     2     3    1
   112   170   173    1
   113   170   171    1
   114   181   179   ar
   115     5     6    1
   116    18    16   ar
   117   175   174    1
   118   198   196   ar
   119   198   200   ar
   120   179   180   ar
   121    54    48   am
   122    10     9    1
   123    10    11    1
   124   196   195   ar
   125   172   171    2
   126    49    48    2
   127   191   192    1
   128   191   194    1
   129     7     6    1
   130    36    34    1
   131   156   155    2
   132   193   192    2
   133    48    47    1
   134    35    34    1
   135     6     8    1
   136   201   200    1
   137     3     4    2
   138   200   199   ar
   139   195   194    1
   140   195   197   ar
   141   157   155   am
   142    34    33    1
   143   155   154    1
   144    50    47    1
   145    50    51    1
   146    11    12    2
   147    11    20   am
   148    47    46    1
   149    53    51   ar
   150   199   197   ar
   151    20    21    1
   152   153   152    2
   153    51    52   ar
   154   152   151    1
   155    33    30    1
   156    46    39   am
   157   154   151    1
   158   151   150    1
   159   137   135    1
   160    25    26    1
   161    25    24    1
   162    30    31    1
   163    30    29    1
   164    21    24    1
   165    21    22    1
   166    39    40    2
   167    39    38    1
   168    28    26   ar
   169    26    27   ar
   170    31    37   am
   171    31    32    2
   172    37    38    1
   173   149   147    1
   174   135   136    1
   175   135   134    1
   176    22    23    2
   177    38    41    1
   178   134   131    1
   179   147   148    1
   180   147   144    1
   181    41    42    1
   182    42    43    1
   183   141   140    2
   184   144   145    1
   185   144   143    1
   186   131   130    1
   187   131   132    1
   188   140   143   am
   189   140   139    1
   190    43    45   ar
   191    43    44   ar
   192   145   146    2
   193   132   138   am
   194   132   133    2
   195   138   139    1
   196   139   142    1
