@<TRIPOS>MOLECULE
tmp/2bejA00.pdb
 138 134 0 0 0
SMALL
GASTEIGER

@<TRIPOS>ATOM
      1  N          6.5390   24.8240   43.2390 N.3    12  GLY12      -0.1210
      2  CA         5.9010   25.3340   42.0300 C.3    12  GLY12       0.1956
      3  C          6.1230   26.8280   41.9460 C.2    12  GLY12       0.2612
      4  O          6.7050   27.4270   42.8570 O.2    12  GLY12      -0.2717
      5  N          5.6640   27.4260   40.8510 N.am   13  GLY13      -0.1942
      6  CA         5.6800   28.8840   40.6820 C.3    13  GLY13       0.2014
      7  C          7.0570   29.5070   40.5260 C.2    13  GLY13       0.2639
      8  O          7.2100   30.7230   40.6620 O.2    13  GLY13      -0.2714
      9  N          8.0470   28.6730   40.2170 N.am   14  VAL14      -0.1963
     10  CA         9.4440   29.0890   40.1890 C.3    14  VAL14       0.1727
     11  C         10.0080   29.2810   38.7640 C.2    14  VAL14       0.2617
     12  O         11.1400   29.7400   38.5990 O.2    14  VAL14      -0.2715
     13  CB        10.3330   28.1060   40.9760 C.3    14  VAL14       0.0290
     14  CG1       10.1510   28.2790   42.4760 C.3    14  VAL14       0.0023
     15  CG2       10.0230   26.7010   40.5640 C.3    14  VAL14       0.0023
     16  N          9.2230   28.9350   37.7470 N.am   15  GLY15      -0.1940
     17  CA         9.5800   29.2510   36.3620 C.3    15  GLY15       0.2014
     18  C          9.9950   28.0870   35.4780 C.2    15  GLY15       0.2639
     19  O         10.5820   28.3080   34.4090 O.2    15  GLY15      -0.2714
     20  N          9.6750   26.8600   35.9060 N.am   16  LYS16      -0.1963
     21  CA         9.9370   25.6450   35.1200 C.3    16  LYS16       0.1728
     22  C          9.2370   25.7000   33.7640 C.2    16  LYS16       0.2617
     23  O          9.8690   25.5680   32.7120 O.2    16  LYS16      -0.2715
     24  CB         9.4650   24.3800   35.8620 C.3    16  LYS16       0.0311
     25  CG        10.2720   23.9690   37.0770 C.3    16  LYS16       0.0038
     26  CD         9.7800   22.6380   37.6960 C.3    16  LYS16       0.0206
     27  CE         8.3660   22.7180   38.3060 C.3    16  LYS16       0.1093
     28  NZ         8.2570   23.7020   39.4370 N.3    16  LYS16      -0.1314
     29  N          7.9170   25.8790   33.7960 N.am   17  THR17      -0.1937
     30  CA         7.1140   25.9160   32.5710 C.3    17  THR17       0.2028
     31  C          7.5510   27.0750   31.6560 C.2    17  THR17       0.2642
     32  O          7.7770   26.8810   30.4500 O.2    17  THR17      -0.2714
     33  CB         5.6010   25.9780   32.9020 C.3    17  THR17       0.1808
     34  OG1        5.2060   24.7540   33.5450 O.3    17  THR17      -0.2208
     35  CG2        4.7640   26.1710   31.6590 C.3    17  THR17       0.0379
     36  N          7.6830   28.2680   32.2320 N.am   18  THR18      -0.1950
     37  CA         8.1590   29.4510   31.4790 C.3    18  THR18       0.1897
     38  C          9.5150   29.1930   30.7890 C.2    18  THR18       0.2313
     39  O          9.7430   29.5900   29.6280 O.2    18  THR18      -0.2863
     40  CB         8.2250   30.7050   32.3970 C.3    18  THR18       0.1794
     41  OG1        6.9650   30.8800   33.0740 O.3    18  THR18      -0.2208
     42  CG2        8.5600   31.9880   31.5910 C.3    18  THR18       0.0378
     43  N          0.0590   23.0580   32.3280 N.3    44  ASN44      -0.1240
     44  CA         0.3920   24.4820   32.1730 C.3    44  ASN44       0.1653
     45  C          1.1660   24.8330   30.9020 C.2    44  ASN44       0.2266
     46  O          0.9430   25.9080   30.3120 O.2    44  ASN44      -0.2867
     47  CB         1.1650   25.0020   33.3920 C.3    44  ASN44       0.1155
     48  CG         0.3170   25.0570   34.6590 C.2    44  ASN44       0.2627
     49  OD1        0.8160   24.8120   35.7580 O.2    44  ASN44      -0.2716
     50  ND2       -0.9570   25.3940   34.5140 N.am   44  ASN44      -0.0877
     51  N          5.4870   20.4220   39.8650 N.3   117  PRO117     -0.2116
     52  CA         6.0590   21.0130   41.0880 C.3   117  PRO117      0.1372
     53  C          6.1430   20.0320   42.2560 C.2   117  PRO117      0.2244
     54  O          5.9700   20.4340   43.4130 O.2   117  PRO117     -0.2868
     55  CB         5.0520   22.1080   41.4600 C.3   117  PRO117      0.0268
     56  CG         4.1580   22.2680   40.2900 C.3   117  PRO117      0.0207
     57  CD         4.1470   20.9660   39.5850 C.3   117  PRO117      0.0892
     58  N         15.5330   32.9260   38.0720 N.3   173  THR173     -0.1203
     59  CA        14.3660   33.4040   37.3410 C.3   173  THR173      0.1994
     60  C         13.6210   34.4580   38.1590 C.2   173  THR173      0.2617
     61  O         13.8160   34.5530   39.3690 O.2   173  THR173     -0.2717
     62  CB        13.3460   32.2520   37.0330 C.3   173  THR173      0.1784
     63  OG1       12.8340   31.7160   38.2630 O.3   173  THR173     -0.2211
     64  CG2       13.9950   31.1450   36.2440 C.3   173  THR173      0.0376
     65  N         12.7670   35.2320   37.4880 N.am  174  MET174     -0.1979
     66  CA        11.9460   36.2790   38.1260 C.3   174  MET174      0.1605
     67  C         12.7800   37.2010   39.0120 C.2   174  MET174      0.2287
     68  O         12.3720   37.5670   40.1160 O.2   174  MET174     -0.2864
     69  CB        10.8020   35.6680   38.9380 C.3   174  MET174      0.0413
     70  CG         9.9780   34.6990   38.1630 C.3   174  MET174      0.0598
     71  SD         8.6430   34.0440   39.1500 S.3   174  MET174     -0.1393
     72  CE         8.7080   32.3400   38.6380 C.3   174  MET174      0.0692
     73  N         16.9730   35.4950   34.3690 N.3   202  ILE202     -0.1231
     74  CA        15.7030   35.8690   33.7680 C.3   202  ILE202      0.1678
     75  C         15.0170   36.9410   34.6320 C.2   202  ILE202      0.2434
     76  O         14.6750   36.6780   35.7850 O.2   202  ILE202     -0.2733
     77  CB        14.7510   34.6290   33.5950 C.3   202  ILE202      0.0265
     78  CG1       15.4730   33.4440   32.9220 C.3   202  ILE202      0.0019
     79  CG2       13.4520   35.0370   32.8900 C.3   202  ILE202      0.0020
     80  CD1       15.9700   33.6970   31.5040 C.3   202  ILE202      0.0001
     81  N         14.8000   38.1410   34.0650 N.am  203  PRO203     -0.2718
     82  CA        14.1660   39.2350   34.7970 C.3   203  PRO203      0.1535
     83  C         12.6940   38.9530   35.0430 C.2   203  PRO203      0.2598
     84  O         12.0280   38.3270   34.2120 O.2   203  PRO203     -0.2715
     85  CB        14.3110   40.4320   33.8430 C.3   203  PRO203      0.0310
     86  CG        14.3730   39.8000   32.4700 C.3   203  PRO203      0.0237
     87  CD        15.1140   38.5110   32.6690 C.3   203  PRO203      0.0939
     88  N         12.2000   39.3850   36.1960 N.am  204  ARG204     -0.1964
     89  CA        10.7600   39.4830   36.3970 C.3   204  ARG204      0.1729
     90  C         10.2790   40.5810   35.4550 C.2   204  ARG204      0.2616
     91  O         10.7670   41.7190   35.5030 O.2   204  ARG204     -0.2715
     92  CB        10.4070   39.8010   37.8560 C.3   204  ARG204      0.0348
     93  CG         8.8890   39.8510   38.1420 C.3   204  ARG204      0.0492
     94  CD         8.5610   39.4950   39.5930 C.3   204  ARG204      0.2205
     95  NE         7.2100   38.9340   39.7300 N.pl3 204  ARG204     -0.0865
     96  CZ         6.9300   37.6360   39.8850 C.cat 204  ARG204      0.5346
     97  NH1        7.9020   36.7300   39.9370 N.pl3 204  ARG204      0.1354
     98  NH2        5.6650   37.2320   39.9970 N.pl3 204  ARG204      0.1354
     99  N          9.3350   40.2200   34.5880 N.am  205  ASN205     -0.1972
    100  CA         8.8310   41.1170   33.5660 C.3   205  ASN205      0.1688
    101  C          7.3840   40.7670   33.2120 C.2   205  ASN205      0.2292
    102  O          7.0520   39.6010   32.9920 O.2   205  ASN205     -0.2864
    103  CB         9.7360   41.0550   32.3330 C.3   205  ASN205      0.1181
    104  CG         9.3120   42.0160   31.2460 C.2   205  ASN205      0.2629
    105  OD1        8.6420   41.6220   30.2950 O.2   205  ASN205     -0.2716
    106  ND2        9.6930   43.2840   31.3820 N.am  205  ASN205     -0.0877
    107  N          6.4760   38.4560   30.1980 N.3   208  LEU208     -0.1231
    108  CA         6.6470   37.0170   30.4450 C.3   208  LEU208      0.1693
    109  C          5.4480   36.4160   31.1680 C.2   208  LEU208      0.2591
    110  O          5.0060   35.3200   30.8290 O.2   208  LEU208     -0.2718
    111  CB         7.9280   36.7170   31.2360 C.3   208  LEU208      0.0284
    112  CG         9.2600   36.6430   30.4740 C.3   208  LEU208      0.0019
    113  CD1       10.4280   36.6850   31.4500 C.3   208  LEU208      0.0001
    114  CD2        9.3480   35.3990   29.5840 C.3   208  LEU208      0.0001
    115  N          4.9350   37.1310   32.1660 N.am  209  ALA209     -0.1980
    116  CA         3.7210   36.7110   32.8770 C.3   209  ALA209      0.1597
    117  C          2.5160   36.6880   31.9400 C.2   209  ALA209      0.2287
    118  O          1.6660   35.8050   32.0410 O.2   209  ALA209     -0.2864
    119  CB         3.4550   37.6200   34.0660 C.3   209  ALA209      0.0319
    120  N          1.6940   33.2980   28.4930 N.3   212  PRO212     -0.2116
    121  CA         0.8960   32.0710   28.5190 C.3   212  PRO212      0.1372
    122  C         -0.6140   32.3080   28.4010 C.2   212  PRO212      0.2244
    123  O         -1.3170   31.4940   27.7960 O.2   212  PRO212     -0.2868
    124  CB         1.2230   31.4610   29.8900 C.3   212  PRO212      0.0268
    125  CG         2.4430   32.1140   30.3290 C.3   212  PRO212      0.0207
    126  CD         2.4270   33.4820   29.7590 C.3   212  PRO212      0.0892
    127  N         15.9800   34.8830   27.5090 N.3   231  TYR231     -0.1241
    128  CA        15.7580   33.4870   27.0980 C.3   231  TYR231      0.1605
    129  C         16.5070   33.0900   25.8290 C.2   231  TYR231      0.2264
    130  O         16.9030   31.9300   25.6790 O.2   231  TYR231     -0.2867
    131  CB        14.2650   33.1420   27.0010 C.3   231  TYR231      0.0534
    132  CG        13.7010   32.7080   28.3480 C.ar  231  TYR231     -0.0201
    133  CD1       14.1780   31.5660   28.9830 C.ar  231  TYR231     -0.0009
    134  CD2       12.7150   33.4610   28.9890 C.ar  231  TYR231     -0.0009
    135  CE1       13.6780   31.1710   30.2390 C.ar  231  TYR231      0.0417
    136  CE2       12.2060   33.0790   30.2330 C.ar  231  TYR231      0.0417
    137  CZ        12.7000   31.9350   30.8560 C.ar  231  TYR231      0.1957
    138  OH        12.2070   31.5600   32.0820 O.3   231  TYR231     -0.2866
@<TRIPOS>BOND
     1   130   129    2
     2   129   128    1
     3   131   128    1
     4   131   132    1
     5   128   127    1
     6   123   122    2
     7   132   133   ar
     8   132   134   ar
     9   122   121    1
    10   120   121    1
    11   120   126    1
    12   121   124    1
    13   133   135   ar
    14   134   136   ar
    15   114   112    1
    16    39    38    2
    17   126   125    1
    18   124   125    1
    19   107   108    1
    20   136   137   ar
    21   135   137   ar
    22   105   104    2
    23    46    45    2
    24   108   109    1
    25   108   111    1
    26    32    31    2
    27   112   111    1
    28   112   113    1
    29    38    37    1
    30   110   109    2
    31   137   138    1
    32    45    44    1
    33   109   115   am
    34   104   106   am
    35   104   103    1
    36    37    36    1
    37    37    40    1
    38    80    78    1
    39    42    40    1
    40    31    36   am
    41    31    30    1
    42    35    33    1
    43   117   118    2
    44   117   116    1
    45   115   116    1
    46    44    43    1
    47    44    47    1
    48   103   100    1
    49    40    41    1
    50    86    87    1
    51    86    85    1
    52    30    33    1
    53    30    29    1
    54    87    81    1
    55    23    22    2
    56   116   119    1
    57    79    77    1
    58    33    34    1
    59    78    77    1
    60   102   101    2
    61   101   100    1
    62    47    48    1
    63   100    99    1
    64    77    74    1
    65    22    29   am
    66    22    21    1
    67    74    73    1
    68    74    75    1
    69    85    82    1
    70    81    75   am
    71    81    82    1
    72    84    83    2
    73    19    18    2
    74    50    48   am
    75    99    90   am
    76    75    76    2
    77    48    49    2
    78    82    83    1
    79    83    88   am
    80    21    24    1
    81    21    20    1
    82    90    91    2
    83    90    89    1
    84    18    20   am
    85    18    17    1
    86    24    25    1
    87    88    89    1
    88    64    62    1
    89    17    16    1
    90    89    92    1
    91    62    59    1
    92    62    63    1
    93    25    26    1
    94    59    58    1
    95    59    60    1
    96    65    66    1
    97    65    60   am
    98    26    27    1
    99    16    11   am
   100    92    93    1
   101    66    69    1
   102    66    67    1
   103    93    94    1
   104    60    61    2
   105    70    69    1
   106    70    71    1
   107    27    28    1
   108    12    11    2
   109    72    71    1
   110    11    10    1
   111    67    68    2
   112    57    51    1
   113    57    56    1
   114    94    95    1
   115    95    96    2
   116    51    52    1
   117    96    97    1
   118    96    98    1
   119    10     9    1
   120    10    13    1
   121     9     7   am
   122    56    55    1
   123     7     8    2
   124     7     6    1
   125    15    13    1
   126     6     5    1
   127     5     3   am
   128    13    14    1
   129    52    55    1
   130    52    53    1
   131     3     2    1
   132     3     4    2
   133     2     1    1
   134    53    54    2
