@<TRIPOS>MOLECULE
tmp/2bekA00.pdb
 171 166 0 0 0
SMALL
GASTEIGER

@<TRIPOS>ATOM
      1  N         34.7050   24.5590   47.2370 N.3    12  GLY12      -0.1210
      2  CA        34.0410   23.4740   46.5400 C.3    12  GLY12       0.1956
      3  C         32.5320   23.6160   46.4520 C.2    12  GLY12       0.2612
      4  O         31.9000   24.1750   47.3480 O.2    12  GLY12      -0.2717
      5  N         31.9710   23.1260   45.3470 N.am   13  GLY13      -0.1942
      6  CA        30.5320   23.1270   45.1350 C.3    13  GLY13       0.2014
      7  C         29.7920   24.4480   45.1350 C.2    13  GLY13       0.2639
      8  O         28.7580   24.5670   45.7860 O.2    13  GLY13      -0.2714
      9  N         30.3020   25.4280   44.3940 N.am   14  VAL14      -0.1963
     10  CA        29.6620   26.7380   44.3260 C.3    14  VAL14       0.1727
     11  C         29.0190   27.0140   42.9650 C.2    14  VAL14       0.2617
     12  O         28.5680   28.1270   42.7010 O.2    14  VAL14      -0.2715
     13  CB        30.6730   27.8690   44.6510 C.3    14  VAL14       0.0290
     14  CG1       31.0510   27.8160   46.1130 C.3    14  VAL14       0.0023
     15  CG2       31.9220   27.7260   43.7840 C.3    14  VAL14       0.0023
     16  N         28.9850   26.0030   42.1000 N.am   15  GLY15      -0.1940
     17  CA        28.3710   26.1830   40.7950 C.3    15  GLY15       0.2014
     18  C         29.2850   26.4420   39.6070 C.2    15  GLY15       0.2639
     19  O         28.8210   26.9010   38.5640 O.2    15  GLY15      -0.2714
     20  N         30.5760   26.1620   39.7480 N.am   16  LYS16      -0.1963
     21  CA        31.5050   26.3730   38.6420 C.3    16  LYS16       0.1728
     22  C         31.0710   25.5590   37.4200 C.2    16  LYS16       0.2617
     23  O         30.8440   26.1010   36.3370 O.2    16  LYS16      -0.2715
     24  CB        32.9260   25.9610   39.0460 C.3    16  LYS16       0.0311
     25  CG        33.5480   26.8160   40.1480 C.3    16  LYS16       0.0038
     26  CD        34.9970   26.4010   40.4380 C.3    16  LYS16       0.0206
     27  CE        35.0970   25.0320   41.1350 C.3    16  LYS16       0.1093
     28  NZ        34.5130   25.0180   42.5060 N.3    16  LYS16      -0.1314
     29  N         30.9460   24.2510   37.6100 N.am   17  THR17      -0.1937
     30  CA        30.5700   23.3510   36.5270 C.3    17  THR17       0.2028
     31  C         29.1770   23.6100   35.9680 C.2    17  THR17       0.2642
     32  O         28.9890   23.6540   34.7490 O.2    17  THR17      -0.2714
     33  CB        30.6960   21.8910   37.0000 C.3    17  THR17       0.1808
     34  OG1       32.0660   21.6340   37.3360 O.3    17  THR17      -0.2208
     35  CG2       30.2400   20.9170   35.9150 C.3    17  THR17       0.0379
     36  N         28.2030   23.7940   36.8520 N.am   18  THR18      -0.1950
     37  CA        26.8340   24.0590   36.4260 C.3    18  THR18       0.1897
     38  C         26.8200   25.3230   35.5730 C.2    18  THR18       0.2313
     39  O         26.1400   25.3900   34.5450 O.2    18  THR18      -0.2863
     40  CB        25.9080   24.2420   37.6460 C.3    18  THR18       0.1794
     41  OG1       25.8970   23.0290   38.4110 O.3    18  THR18      -0.2208
     42  CG2       24.4830   24.5720   37.2050 C.3    18  THR18       0.0378
     43  N         38.8860   19.8600   35.4620 N.3    40  ALA40      -0.1245
     44  CA        38.7780   19.2310   36.7750 C.3    40  ALA40       0.1562
     45  C         39.0350   17.7270   36.7260 C.2    40  ALA40       0.2260
     46  O         38.4570   17.0140   35.9040 O.2    40  ALA40      -0.2867
     47  CB        37.3950   19.4980   37.3660 C.3    40  ALA40       0.0290
     48  N         37.9950   15.6230   38.5700 N.3    42  GLN42      -0.1245
     49  CA        36.7010   15.0100   38.8470 C.3    42  GLN42       0.1566
     50  C         35.9510   14.7600   37.5340 C.2    42  GLN42       0.2260
     51  O         35.2050   13.7860   37.4050 O.2    42  GLN42      -0.2867
     52  CB        35.8620   15.9200   39.7540 C.3    42  GLN42       0.0367
     53  CG        36.4100   16.1230   41.1750 C.3    42  GLN42       0.0905
     54  CD        37.3980   17.2820   41.2950 C.2    42  GLN42       0.2608
     55  OE1       37.6950   17.7460   42.4020 O.2    42  GLN42      -0.2717
     56  NE2       37.9130   17.7480   40.1640 N.am   42  GLN42      -0.0878
     57  N         33.4450   16.4800   36.1240 N.3    44  ASN44      -0.1240
     58  CA        31.9970   16.6330   36.1850 C.3    44  ASN44       0.1653
     59  C         31.3600   17.2570   34.9450 C.2    44  ASN44       0.2266
     60  O         30.2890   16.8310   34.5300 O.2    44  ASN44      -0.2867
     61  CB        31.5840   17.4310   37.4310 C.3    44  ASN44       0.1155
     62  CG        31.8350   16.6710   38.7260 C.2    44  ASN44       0.2627
     63  OD1       31.8850   15.4360   38.7450 O.2    44  ASN44      -0.2716
     64  ND2       31.9730   17.4060   39.8180 N.am   44  ASN44      -0.0877
     65  N         37.3360   24.9610   36.0540 N.3   115  ALA115     -0.1231
     66  CA        38.4360   24.6100   36.9470 C.3   115  ALA115      0.1679
     67  C         37.9810   23.8770   38.2020 C.2   115  ALA115      0.2434
     68  O         36.8440   24.0370   38.6460 O.2   115  ALA115     -0.2733
     69  CB        39.1930   25.8720   37.3410 C.3   115  ALA115      0.0304
     70  N         38.8690   23.0550   38.7880 N.am  116  PRO116     -0.2718
     71  CA        38.5510   22.3030   40.0030 C.3   116  PRO116      0.1520
     72  C         38.6200   23.2290   41.2190 C.2   116  PRO116      0.2440
     73  O         39.1330   24.3430   41.1280 O.2   116  PRO116     -0.2731
     74  CB        39.6340   21.2290   40.0330 C.3   116  PRO116      0.0310
     75  CG        40.8060   21.9440   39.4530 C.3   116  PRO116      0.0237
     76  CD        40.1950   22.6670   38.2700 C.3   116  PRO116      0.0939
     77  N         38.0900   22.7820   42.3670 N.am  117  PRO117     -0.2727
     78  CA        38.1040   23.5890   43.5960 C.3   117  PRO117      0.1402
     79  C         39.4610   23.5900   44.3010 C.2   117  PRO117      0.2269
     80  O         39.6290   22.9890   45.3620 O.2   117  PRO117     -0.2865
     81  CB        37.0100   22.9440   44.4400 C.3   117  PRO117      0.0296
     82  CG        37.1130   21.5010   44.0570 C.3   117  PRO117      0.0237
     83  CD        37.2920   21.5550   42.5500 C.3   117  PRO117      0.0939
     84  N         25.2880   32.4310   43.1370 N.3   173  THR173     -0.1203
     85  CA        24.6820   31.1520   42.7570 C.3   173  THR173      0.1994
     86  C         23.9150   30.4770   43.8940 C.2   173  THR173      0.2617
     87  O         24.0590   30.8480   45.0600 O.2   173  THR173     -0.2717
     88  CB        25.7550   30.1530   42.2800 C.3   173  THR173      0.1784
     89  OG1       26.7170   29.9710   43.3240 O.3   173  THR173     -0.2211
     90  CG2       26.4580   30.6570   41.0280 C.3   173  THR173      0.0376
     91  N         23.1020   29.4810   43.5360 N.am  174  MET174     -0.1979
     92  CA        22.3200   28.7160   44.5080 C.3   174  MET174      0.1605
     93  C         21.6690   29.6120   45.5450 C.2   174  MET174      0.2287
     94  O         21.7730   29.3850   46.7510 O.2   174  MET174     -0.2864
     95  CB        23.2150   27.6820   45.1920 C.3   174  MET174      0.0413
     96  CG        23.4930   26.4760   44.3120 C.3   174  MET174      0.0598
     97  SD        24.7640   25.3790   44.9410 S.3   174  MET174     -0.1393
     98  CE        26.1470   26.2000   44.3220 C.3   174  MET174      0.0692
     99  N         21.5790   33.2870   40.0710 N.3   202  ILE202     -0.1231
    100  CA        21.0980   31.9460   39.7480 C.3   202  ILE202      0.1678
    101  C         20.3600   31.4200   40.9700 C.2   202  ILE202      0.2434
    102  O         20.9550   31.2370   42.0310 O.2   202  ILE202     -0.2733
    103  CB        22.2570   30.9690   39.4280 C.3   202  ILE202      0.0265
    104  CG1       23.2200   31.5960   38.4160 C.3   202  ILE202      0.0019
    105  CG2       21.6870   29.6640   38.8780 C.3   202  ILE202      0.0020
    106  CD1       22.5840   31.9500   37.0720 C.3   202  ILE202      0.0001
    107  N         19.0530   31.1740   40.8440 N.am  203  PRO203     -0.2718
    108  CA        18.3110   30.6700   42.0010 C.3   203  PRO203      0.1535
    109  C         18.5620   29.1900   42.2490 C.2   203  PRO203      0.2598
    110  O         18.9060   28.4460   41.3240 O.2   203  PRO203     -0.2715
    111  CB        16.8670   30.9330   41.6060 C.3   203  PRO203      0.0310
    112  CG        16.8940   30.6230   40.1330 C.3   203  PRO203      0.0237
    113  CD        18.1740   31.3050   39.6670 C.3   203  PRO203      0.0939
    114  N         18.4170   28.7630   43.4970 N.am  204  ARG204     -0.1964
    115  CA        18.5680   27.3480   43.7880 C.3   204  ARG204      0.1729
    116  C         17.3150   26.7010   43.2180 C.2   204  ARG204      0.2616
    117  O         16.1970   27.1330   43.5060 O.2   204  ARG204     -0.2715
    118  CB        18.6340   27.0720   45.2940 C.3   204  ARG204      0.0348
    119  CG        18.4550   25.5800   45.6220 C.3   204  ARG204      0.0492
    120  CD        18.7240   25.2650   47.0810 C.3   204  ARG204      0.2205
    121  NE        20.1350   25.4110   47.4300 N.pl3 204  ARG204     -0.0865
    122  CZ        21.1010   24.5960   47.0160 C.cat 204  ARG204      0.5346
    123  NH1       22.3540   24.8170   47.3910 N.pl3 204  ARG204      0.1354
    124  NH2       20.8180   23.5540   46.2440 N.pl3 204  ARG204      0.1354
    125  N         17.5050   25.6900   42.3830 N.am  205  ASN205     -0.1958
    126  CA        16.3920   24.9740   41.7840 C.3   205  ASN205      0.1819
    127  C         16.9060   23.5880   41.4470 C.2   205  ASN205      0.2621
    128  O         17.8540   23.4370   40.6810 O.2   205  ASN205     -0.2715
    129  CB        15.8990   25.6830   40.5260 C.3   205  ASN205      0.1195
    130  CG        14.7100   24.9880   39.9120 C.2   205  ASN205      0.2630
    131  OD1       14.8590   24.0050   39.1880 O.2   205  ASN205     -0.2716
    132  ND2       13.5150   25.4790   40.2180 N.am  205  ASN205     -0.0877
    133  N         16.2720   22.5740   42.0200 N.am  206  VAL206     -0.1977
    134  CA        16.7200   21.2070   41.8240 C.3   206  VAL206      0.1596
    135  C         16.8430   20.7140   40.3770 C.2   206  VAL206      0.2287
    136  O         17.6320   19.8150   40.1080 O.2   206  VAL206     -0.2864
    137  CB        15.8380   20.2220   42.6400 C.3   206  VAL206      0.0276
    138  CG1       14.4980   20.0140   41.9540 C.3   206  VAL206      0.0022
    139  CG2       16.5810   18.9100   42.8400 C.3   206  VAL206      0.0022
    140  N         18.2970   22.0630   38.0510 N.3   208  LEU208     -0.1231
    141  CA        19.6640   22.3640   37.6200 C.3   208  LEU208      0.1693
    142  C         20.5800   21.2150   38.0280 C.2   208  LEU208      0.2591
    143  O         21.5470   20.8990   37.3350 O.2   208  LEU208     -0.2718
    144  CB        20.1560   23.6640   38.2640 C.3   208  LEU208      0.0284
    145  CG        19.6760   24.9520   37.5960 C.3   208  LEU208      0.0019
    146  CD1       19.9970   26.1480   38.4850 C.3   208  LEU208      0.0001
    147  CD2       20.3580   25.0910   36.2410 C.3   208  LEU208      0.0001
    148  N         20.2600   20.5890   39.1570 N.am  209  ALA209     -0.1980
    149  CA        21.0400   19.4660   39.6620 C.3   209  ALA209      0.1597
    150  C         20.6300   18.1720   38.9600 C.2   209  ALA209      0.2287
    151  O         21.4290   17.2480   38.8420 O.2   209  ALA209     -0.2864
    152  CB        20.8490   19.3310   41.1680 C.3   209  ALA209      0.0319
    153  N         22.3060   17.1880   34.7470 N.3   212  PRO212     -0.2116
    154  CA        23.5220   16.3980   34.5240 C.3   212  PRO212      0.1372
    155  C         23.3140   14.8830   34.5580 C.2   212  PRO212      0.2244
    156  O         24.0030   14.1420   33.8490 O.2   212  PRO212     -0.2868
    157  CB        24.4490   16.8580   35.6510 C.3   212  PRO212      0.0268
    158  CG        23.9770   18.2360   35.9550 C.3   212  PRO212      0.0207
    159  CD        22.4870   18.1110   35.8830 C.3   212  PRO212      0.0892
    160  N         20.1830   31.3970   33.5940 N.3   231  TYR231     -0.1241
    161  CA        21.3850   31.2230   32.7900 C.3   231  TYR231      0.1605
    162  C         21.2480   31.8480   31.3970 C.2   231  TYR231      0.2264
    163  O         22.2420   32.2470   30.7900 O.2   231  TYR231     -0.2867
    164  CB        21.7580   29.7400   32.7190 C.3   231  TYR231      0.0534
    165  CG        22.5890   29.3120   33.9140 C.ar  231  TYR231     -0.0201
    166  CD1       23.8580   29.8490   34.1240 C.ar  231  TYR231     -0.0009
    167  CD2       22.0940   28.4050   34.8530 C.ar  231  TYR231     -0.0009
    168  CE1       24.6180   29.5010   35.2430 C.ar  231  TYR231      0.0417
    169  CE2       22.8500   28.0460   35.9800 C.ar  231  TYR231      0.0417
    170  CZ        24.1070   28.6000   36.1640 C.ar  231  TYR231      0.1957
    171  OH        24.8570   28.2610   37.2680 O.3   231  TYR231     -0.2866
@<TRIPOS>BOND
     1   163   162    2
     2   162   161    1
     3   164   161    1
     4   164   165    1
     5   161   160    1
     6   156   155    2
     7   165   166   ar
     8   165   167   ar
     9   166   168   ar
    10   154   155    1
    11   154   153    1
    12   154   157    1
    13    60    59    2
    14    39    38    2
    15   153   159    1
    16    32    31    2
    17   167   169   ar
    18    59    58    1
    19   168   170   ar
    20    43    44    1
    21    38    37    1
    22   157   158    1
    23   159   158    1
    24    46    45    2
    25    35    33    1
    26    31    30    1
    27    31    36   am
    28   169   170   ar
    29    65    66    1
    30    57    58    1
    31   170   171    1
    32    58    61    1
    33   147   145    1
    34    23    22    2
    35    37    36    1
    36    37    40    1
    37    30    33    1
    38    30    29    1
    39    45    44    1
    40    44    47    1
    41    66    69    1
    42    66    67    1
    43    33    34    1
    44   106   104    1
    45    42    40    1
    46   143   142    2
    47    51    50    2
    48    22    29   am
    49    22    21    1
    50    61    62    1
    51    50    49    1
    52   145   144    1
    53   145   146    1
    54   141   142    1
    55   141   140    1
    56   141   144    1
    57    40    41    1
    58   142   148   am
    59    67    68    2
    60    67    70   am
    61    76    70    1
    62    76    75    1
    63   104   103    1
    64    19    18    2
    65    48    49    1
    66    21    24    1
    67    21    20    1
    68    62    63    2
    69    62    64   am
    70    70    71    1
    71   151   150    2
    72    49    52    1
    73   105   103    1
    74   150   149    1
    75    24    25    1
    76   148   149    1
    77   131   130    2
    78   103   100    1
    79    75    74    1
    80    18    20   am
    81    18    17    1
    82   149   152    1
    83   113   112    1
    84   113   107    1
    85   100    99    1
    86   100   101    1
    87    52    53    1
    88   130   132   am
    89   130   129    1
    90    71    74    1
    91    71    72    1
    92   136   135    2
    93   112   111    1
    94    25    26    1
    95    56    54   am
    96   135   134    1
    97    26    27    1
    98   129   126    1
    99   128   127    2
   100    17    16    1
   101   107   101   am
   102   107   108    1
   103   101   102    2
   104    90    88    1
   105    73    72    2
   106    27    28    1
   107    53    54    1
   108    72    77   am
   109    54    55    2
   110   110   109    2
   111   127   126    1
   112   127   133   am
   113   111   108    1
   114   126   125    1
   115   134   133    1
   116   134   137    1
   117   138   137    1
   118   108   109    1
   119    16    11   am
   120   109   114   am
   121    88    85    1
   122    88    89    1
   123    77    83    1
   124    77    78    1
   125   125   116   am
   126    83    82    1
   127   137   139    1
   128    12    11    2
   129    85    84    1
   130    85    86    1
   131    11    10    1
   132   116   117    2
   133   116   115    1
   134   114   115    1
   135    91    86   am
   136    91    92    1
   137    78    79    1
   138    78    81    1
   139    15    13    1
   140   115   118    1
   141    86    87    2
   142    82    81    1
   143    79    80    2
   144    96    97    1
   145    96    95    1
   146    98    97    1
   147    10     9    1
   148    10    13    1
   149     9     7   am
   150    92    95    1
   151    92    93    1
   152    13    14    1
   153     7     6    1
   154     7     8    2
   155     6     5    1
   156   118   119    1
   157     5     3   am
   158    93    94    2
   159   119   120    1
   160   124   122    1
   161     3     2    1
   162     3     4    2
   163     2     1    1
   164   122   123    1
   165   122   121    2
   166   120   121    1
