@<TRIPOS>MOLECULE
tmp/2bekA01.pdb
 80 79 0 0 0
SMALL
GASTEIGER

@<TRIPOS>ATOM
      1  N         38.1880   28.3380   44.4700 N.3    10  GLN10      -0.1231
      2  CA        38.6930   27.1890   45.2030 C.3    10  GLN10       0.1698
      3  C         37.6870   26.6300   46.2110 C.2    10  GLN10       0.2592
      4  O         37.8960   25.5470   46.7560 O.2    10  GLN10      -0.2718
      5  CB        40.0310   27.5130   45.8780 C.3    10  GLN10       0.0381
      6  CG        39.9730   28.3940   47.1010 C.3    10  GLN10       0.0905
      7  CD        41.3510   28.5960   47.7120 C.2    10  GLN10       0.2608
      8  OE1       42.1390   27.6560   47.8120 O.2    10  GLN10      -0.2717
      9  NE2       41.6430   29.8220   48.1300 N.am   10  GLN10      -0.0878
     10  N         36.5940   27.3500   46.4650 N.am   11  LYS11      -0.1966
     11  CA        35.5790   26.8260   47.3820 C.3    11  LYS11       0.1728
     12  C         34.8600   25.7190   46.6160 C.2    11  LYS11       0.2617
     13  O         34.4490   25.9110   45.4760 O.2    11  LYS11      -0.2715
     14  CB        34.5630   27.9030   47.7810 C.3    11  LYS11       0.0311
     15  CG        33.4340   27.3830   48.6830 C.3    11  LYS11       0.0038
     16  CD        33.9490   26.9890   50.0690 C.3    11  LYS11       0.0206
     17  CE        32.8610   26.3400   50.9250 C.3    11  LYS11       0.1093
     18  NZ        32.5400   24.9410   50.4800 N.3    11  LYS11      -0.1314
     19  N         34.7050   24.5590   47.2370 N.am   12  GLY12      -0.1940
     20  CA        34.0410   23.4740   46.5400 C.3    12  GLY12       0.2014
     21  C         32.5320   23.6160   46.4520 C.2    12  GLY12       0.2639
     22  O         31.9000   24.1750   47.3480 O.2    12  GLY12      -0.2714
     23  N         31.9710   23.1260   45.3470 N.am   13  GLY13      -0.1954
     24  CA        30.5320   23.1270   45.1350 C.3    13  GLY13       0.1869
     25  C         29.7920   24.4480   45.1350 C.2    13  GLY13       0.2309
     26  O         28.7580   24.5670   45.7860 O.2    13  GLY13      -0.2863
     27  N         38.0900   22.7820   42.3670 N.3   117  PRO117     -0.2116
     28  CA        38.1040   23.5890   43.5960 C.3   117  PRO117      0.1372
     29  C         39.4610   23.5900   44.3010 C.2   117  PRO117      0.2244
     30  O         39.6290   22.9890   45.3620 O.2   117  PRO117     -0.2868
     31  CB        37.0100   22.9440   44.4400 C.3   117  PRO117      0.0268
     32  CG        37.1130   21.5010   44.0570 C.3   117  PRO117      0.0207
     33  CD        37.2920   21.5550   42.5500 C.3   117  PRO117      0.0892
     34  N         28.3620   30.9470   45.9360 N.3   138  GLN138     -0.1245
     35  CA        27.1590   30.3810   46.5280 C.3   138  GLN138      0.1566
     36  C         26.6500   31.3650   47.5840 C.2   138  GLN138      0.2260
     37  O         27.4420   31.9230   48.3420 O.2   138  GLN138     -0.2867
     38  CB        27.5190   29.0460   47.1700 C.3   138  GLN138      0.0367
     39  CG        26.3590   28.2670   47.7360 C.3   138  GLN138      0.0905
     40  CD        26.8240   26.9650   48.3470 C.2   138  GLN138      0.2608
     41  OE1       26.0800   25.9890   48.3970 O.2   138  GLN138     -0.2717
     42  NE2       28.0640   26.9460   48.8230 N.am  138  GLN138     -0.0878
     43  N         25.9160   31.6880   50.5460 N.3   140  GLU140     -0.1231
     44  CA        26.0570   31.1950   51.9070 C.3   140  GLU140      0.1699
     45  C         27.3360   31.7810   52.4870 C.2   140  GLU140      0.2592
     46  O         28.0820   32.4610   51.7840 O.2   140  GLU140     -0.2718
     47  CB        26.0780   29.6610   51.9120 C.3   140  GLU140      0.0402
     48  CG        24.7380   29.0690   51.4600 C.3   140  GLU140      0.1161
     49  CD        24.7080   27.5490   51.4410 C.2   140  GLU140      0.3649
     50  OE1       23.6710   26.9820   51.0290 O.co2 140  GLU140     -0.2457
     51  OE2       25.7100   26.9240   51.8360 O.co2 140  GLU140     -0.2457
     52  N         27.5870   31.5240   53.7660 N.am  141  TYR141     -0.1962
     53  CA        28.7610   32.0790   54.4310 C.3   141  TYR141      0.1771
     54  C         30.1570   31.6960   53.9250 C.2   141  TYR141      0.2620
     55  O         30.9600   32.5730   53.6120 O.2   141  TYR141     -0.2715
     56  CB        28.6890   31.7950   55.9330 C.3   141  TYR141      0.0574
     57  CG        29.9530   32.1940   56.6530 C.ar  141  TYR141     -0.0198
     58  CD1       30.2890   33.5380   56.8240 C.ar  141  TYR141     -0.0009
     59  CD2       30.8500   31.2280   57.0940 C.ar  141  TYR141     -0.0009
     60  CE1       31.4980   33.9040   57.4170 C.ar  141  TYR141      0.0417
     61  CE2       32.0530   31.5770   57.6790 C.ar  141  TYR141      0.0417
     62  CZ        32.3740   32.9140   57.8380 C.ar  141  TYR141      0.1957
     63  OH        33.5810   33.2440   58.4050 O.3   141  TYR141     -0.2866
     64  N         30.4680   30.4070   53.8400 N.am  142  TYR142     -0.1960
     65  CA        31.8160   30.0430   53.4150 C.3   142  TYR142      0.1771
     66  C         32.2300   30.6290   52.0730 C.2   142  TYR142      0.2619
     67  O         33.3560   31.1080   51.9240 O.2   142  TYR142     -0.2715
     68  CB        32.0070   28.5200   53.4070 C.3   142  TYR142      0.0574
     69  CG        32.0790   27.8970   54.7890 C.ar  142  TYR142     -0.0198
     70  CD1       32.8660   28.4670   55.7960 C.ar  142  TYR142     -0.0009
     71  CD2       31.3780   26.7280   55.0870 C.ar  142  TYR142     -0.0009
     72  CE1       32.9500   27.8900   57.0620 C.ar  142  TYR142      0.0417
     73  CE2       31.4570   26.1380   56.3470 C.ar  142  TYR142      0.0417
     74  CZ        32.2450   26.7250   57.3320 C.ar  142  TYR142      0.1957
     75  OH        32.3250   26.1410   58.5710 O.3   142  TYR142     -0.2866
     76  N         31.3360   30.6050   51.0930 N.am  143  ALA143     -0.1977
     77  CA        31.6850   31.1510   49.7880 C.3   143  ALA143      0.1597
     78  C         31.9350   32.6540   49.9120 C.2   143  ALA143      0.2287
     79  O         32.8770   33.1760   49.3270 O.2   143  ALA143     -0.2864
     80  CB        30.5690   30.8710   48.7700 C.3   143  ALA143      0.0319
@<TRIPOS>BOND
     1    27    33    1
     2    27    28    1
     3    33    32    1
     4    28    29    1
     5    28    31    1
     6    32    31    1
     7    29    30    2
     8     1     2    1
     9    25    24    1
    10    25    26    2
    11    24    23    1
    12     2     5    1
    13     2     3    1
    14    23    21   am
    15    13    12    2
    16     5     6    1
    17    34    35    1
    18     3    10   am
    19     3     4    2
    20    21    20    1
    21    21    22    2
    22    10    11    1
    23    35    38    1
    24    35    36    1
    25    20    19    1
    26    12    19   am
    27    12    11    1
    28     6     7    1
    29    38    39    1
    30    11    14    1
    31    36    37    2
    32     7     8    2
    33     7     9   am
    34    39    40    1
    35    14    15    1
    36    40    41    2
    37    40    42   am
    38    15    16    1
    39    80    77    1
    40    79    78    2
    41    77    78    1
    42    77    76    1
    43    16    17    1
    44    18    17    1
    45    43    44    1
    46    50    49   ar
    47    76    66   am
    48    49    48    1
    49    49    51   ar
    50    48    47    1
    51    46    45    2
    52    44    47    1
    53    44    45    1
    54    67    66    2
    55    66    65    1
    56    45    52   am
    57    68    65    1
    58    68    69    1
    59    65    64    1
    60    55    54    2
    61    52    53    1
    62    64    54   am
    63    54    53    1
    64    53    56    1
    65    69    71   ar
    66    69    70   ar
    67    71    73   ar
    68    70    72   ar
    69    56    57    1
    70    73    74   ar
    71    57    58   ar
    72    57    59   ar
    73    58    60   ar
    74    72    74   ar
    75    59    61   ar
    76    74    75    1
    77    60    62   ar
    78    61    62   ar
    79    62    63    1
