@<TRIPOS>MOLECULE
tmp/2belB01.pdb
 202 190 0 0 0
SMALL
GASTEIGER

@<TRIPOS>ATOM
      1  N         -0.9220   18.9010  -13.9140 N.3    95  ILE95      -0.1231
      2  CA        -2.0130   19.0680  -12.9850 C.3    95  ILE95       0.1692
      3  C         -3.1700   18.2070  -13.4720 C.2    95  ILE95       0.2592
      4  O         -3.3950   18.0950  -14.7000 O.2    95  ILE95      -0.2718
      5  CB        -2.4030   20.5850  -12.9300 C.3    95  ILE95       0.0266
      6  CG1       -3.2080   20.8990  -11.6910 C.3    95  ILE95       0.0019
      7  CG2       -3.1120   21.0830  -14.2350 C.3    95  ILE95       0.0020
      8  CD1       -2.2990   21.1330  -10.5250 C.3    95  ILE95       0.0001
      9  N         -3.8930   17.5870  -12.5400 N.am   96  THR96      -0.1953
     10  CA        -5.1350   16.8470  -12.8850 C.3    96  THR96       0.1897
     11  C         -6.3140   17.7860  -13.1250 C.2    96  THR96       0.2313
     12  O         -6.4700   18.8170  -12.4420 O.2    96  THR96      -0.2863
     13  CB        -5.5490   15.7610  -11.8130 C.3    96  THR96       0.1794
     14  OG1       -6.4000   14.7760  -12.4110 O.3    96  THR96      -0.2208
     15  CG2       -6.2850   16.3590  -10.6370 C.3    96  THR96       0.0378
     16  N         -9.5420   19.8040  -13.0190 N.3    98  THR98      -0.1203
     17  CA       -10.2100   20.4190  -11.8990 C.3    98  THR98       0.1994
     18  C        -11.1280   21.4840  -12.4990 C.2    98  THR98       0.2619
     19  O        -10.7460   22.1980  -13.4480 O.2    98  THR98      -0.2717
     20  CB        -9.1950   21.1630  -10.9710 C.3    98  THR98       0.1784
     21  OG1       -8.2260   20.2380  -10.4590 O.3    98  THR98      -0.2211
     22  CG2       -9.9180   21.8840   -9.8180 C.3    98  THR98       0.0376
     23  N        -12.3160   21.5880  -11.9380 N.am   99  SER99      -0.1937
     24  CA       -13.2200   22.6780  -12.2500 C.3    99  SER99       0.2055
     25  C        -13.7160   23.2810  -10.9290 C.2    99  SER99       0.2642
     26  O        -13.6650   22.6270   -9.8790 O.2    99  SER99      -0.2714
     27  CB       -14.3900   22.1520  -13.0680 C.3    99  SER99       0.2130
     28  OG       -15.0940   21.1780  -12.3080 O.3    99  SER99      -0.2179
     29  N        -14.2070   24.5160  -10.9930 N.am  100  LEU100     -0.1977
     30  CA       -14.6580   25.2200   -9.7980 C.3   100  LEU100      0.1596
     31  C        -15.9680   24.6420   -9.2890 C.2   100  LEU100      0.2287
     32  O        -16.9860   24.7260   -9.9690 O.2   100  LEU100     -0.2864
     33  CB       -14.8070   26.7160  -10.0830 C.3   100  LEU100      0.0297
     34  CG       -13.5420   27.4790  -10.5490 C.3   100  LEU100      0.0022
     35  CD1      -13.8820   28.8220  -11.1620 C.3   100  LEU100      0.0001
     36  CD2      -12.5920   27.6990   -9.3930 C.3   100  LEU100      0.0001
     37  N          0.4350   28.3740   -7.7080 N.3   144  SER144     -0.1202
     38  CA        -0.7740   29.1260   -7.9780 C.3   144  SER144      0.2020
     39  C         -1.0210   30.0970   -6.8510 C.2   144  SER144      0.2619
     40  O         -0.7360   29.7710   -5.6900 O.2   144  SER144     -0.2717
     41  CB        -1.8900   28.0800   -8.0210 C.3   144  SER144      0.2103
     42  OG        -3.1750   28.6160   -8.0430 O.3   144  SER144     -0.2182
     43  N         -1.6160   31.2650   -7.1340 N.am  145  LEU145     -0.1965
     44  CA        -2.0690   32.1480   -6.0440 C.3   145  LEU145      0.1728
     45  C         -2.9740   31.3910   -5.0450 C.2   145  LEU145      0.2616
     46  O         -2.9820   31.6830   -3.8280 O.2   145  LEU145     -0.2715
     47  CB        -2.7970   33.3970   -6.5710 C.3   145  LEU145      0.0311
     48  CG        -3.0860   34.4910   -5.5200 C.3   145  LEU145      0.0022
     49  CD1       -1.8130   34.8750   -4.7070 C.3   145  LEU145      0.0001
     50  CD2       -3.6460   35.7110   -6.1900 C.3   145  LEU145      0.0001
     51  N         -3.7510   30.4400   -5.5550 N.am  146  ALA146     -0.1977
     52  CA        -4.6140   29.6430   -4.6840 C.3   146  ALA146      0.1597
     53  C         -3.8080   28.6070   -3.9120 C.2   146  ALA146      0.2287
     54  O         -4.3660   27.9210   -3.0720 O.2   146  ALA146     -0.2864
     55  CB        -5.7640   28.9900   -5.4680 C.3   146  ALA146      0.0319
     56  N         -9.1540   30.4880   -1.3550 N.3   151  TYR151     -0.1241
     57  CA       -10.3380   30.7250   -2.2450 C.3   151  TYR151      0.1605
     58  C        -11.4080   29.6170   -2.1570 C.2   151  TYR151      0.2264
     59  O        -11.0690   28.4290   -2.0720 O.2   151  TYR151     -0.2867
     60  CB        -9.9300   30.8690   -3.7380 C.3   151  TYR151      0.0534
     61  CG        -9.0590   32.0660   -4.0710 C.ar  151  TYR151     -0.0201
     62  CD1       -7.6860   31.9600   -4.0330 C.ar  151  TYR151     -0.0009
     63  CD2       -9.6040   33.2890   -4.4590 C.ar  151  TYR151     -0.0009
     64  CE1       -6.8850   33.0080   -4.3190 C.ar  151  TYR151      0.0417
     65  CE2       -8.7790   34.3730   -4.7690 C.ar  151  TYR151      0.0417
     66  CZ        -7.4210   34.2080   -4.6630 C.ar  151  TYR151      0.1957
     67  OH        -6.5430   35.2220   -4.9500 O.3   151  TYR151     -0.2866
     68  N        -12.1810   25.6540   -4.5800 N.3   154  VAL154     -0.1245
     69  CA       -10.9370   25.0250   -5.0050 C.3   154  VAL154      0.1561
     70  C        -10.2330   24.2910   -3.8660 C.2   154  VAL154      0.2260
     71  O         -8.9940   24.2590   -3.8060 O.2   154  VAL154     -0.2867
     72  CB        -9.9950   26.0630   -5.6010 C.3   154  VAL154      0.0252
     73  CG1      -10.4710   26.4240   -7.0140 C.3   154  VAL154      0.0019
     74  CG2       -9.8930   27.2970   -4.6650 C.3   154  VAL154      0.0019
     75  N         -7.7870   21.2840   -4.8660 N.3   157  TYR157     -0.1241
     76  CA        -6.7230   21.9170   -5.6140 C.3   157  TYR157      0.1605
     77  C         -5.7610   22.6920   -4.7120 C.2   157  TYR157      0.2264
     78  O         -4.5230   22.4950   -4.7520 O.2   157  TYR157     -0.2867
     79  CB        -7.3520   22.8500   -6.6340 C.3   157  TYR157      0.0534
     80  CG        -6.3510   23.6690   -7.4440 C.ar  157  TYR157     -0.0201
     81  CD1       -5.7510   23.1500   -8.5950 C.ar  157  TYR157     -0.0009
     82  CD2       -6.0600   24.9780   -7.0800 C.ar  157  TYR157     -0.0009
     83  CE1       -4.8730   23.9010   -9.3280 C.ar  157  TYR157      0.0417
     84  CE2       -5.1740   25.7380   -7.8020 C.ar  157  TYR157      0.0417
     85  CZ        -4.5970   25.2100   -8.9250 C.ar  157  TYR157      0.1957
     86  OH        -3.7490   26.0230   -9.6310 O.3   157  TYR157     -0.2866
     87  N         -1.7220   22.3130   -3.8300 N.3   161  LYS161     -0.1245
     88  CA        -0.7290   23.3000   -4.1440 C.3   161  LYS161      0.1561
     89  C         -0.0350   23.8080   -2.8930 C.2   161  LYS161      0.2260
     90  O          1.1760   24.0820   -2.9110 O.2   161  LYS161     -0.2867
     91  CB        -1.3250   24.4700   -4.9530 C.3   161  LYS161      0.0271
     92  CG        -1.8190   24.0860   -6.3190 C.3   161  LYS161      0.0035
     93  CD        -0.6720   23.6670   -7.2080 C.3   161  LYS161      0.0206
     94  CE        -1.0320   23.7680   -8.6870 C.3   161  LYS161      0.1093
     95  NZ         0.1060   23.4370   -9.6180 N.3   161  LYS161     -0.1314
     96  N          1.4290   31.6910   -9.6660 N.3   189  LEU189     -0.1231
     97  CA         0.8330   32.2810  -10.8220 C.3   189  LEU189      0.1693
     98  C         -0.6050   32.7360  -10.5290 C.2   189  LEU189      0.2593
     99  O         -1.3390   32.0650   -9.7940 O.2   189  LEU189     -0.2718
    100  CB         0.8430   31.3100  -11.9860 C.3   189  LEU189      0.0284
    101  CG         2.1360   30.5910  -12.3440 C.3   189  LEU189      0.0019
    102  CD1        1.8690   29.7250  -13.5350 C.3   189  LEU189      0.0001
    103  CD2        3.2710   31.5280  -12.5980 C.3   189  LEU189      0.0001
    104  N         -0.9640   33.9010  -11.0960 N.am  190  GLY190     -0.1942
    105  CA        -2.3340   34.4050  -11.1300 C.3   190  GLY190      0.2014
    106  C         -3.0120   33.8050  -12.3500 C.2   190  GLY190      0.2638
    107  O         -2.5900   32.7610  -12.8350 O.2   190  GLY190     -0.2714
    108  N         -4.0650   34.4600  -12.8460 N.am  191  LEU191     -0.1977
    109  CA        -4.8290   33.9390  -13.9790 C.3   191  LEU191      0.1596
    110  C         -4.0110   34.0850  -15.2490 C.2   191  LEU191      0.2287
    111  O         -3.5700   35.2010  -15.6150 O.2   191  LEU191     -0.2864
    112  CB        -6.2030   34.6480  -14.1120 C.3   191  LEU191      0.0297
    113  CG        -7.0940   34.2230  -15.3070 C.3   191  LEU191      0.0022
    114  CD1       -7.5020   32.7730  -15.1720 C.3   191  LEU191      0.0001
    115  CD2       -8.3450   35.1290  -15.4970 C.3   191  LEU191      0.0001
    116  N         -4.4850   30.2980  -20.6390 N.3   194  THR194     -0.1218
    117  CA        -4.5800   28.9610  -21.2550 C.3   194  THR194      0.1862
    118  C         -6.0410   28.5960  -21.4520 C.2   194  THR194      0.2287
    119  O         -6.8970   29.0410  -20.6830 O.2   194  THR194     -0.2866
    120  CB        -3.9430   27.8820  -20.3690 C.3   194  THR194      0.1770
    121  OG1       -4.6680   27.7720  -19.1290 O.3   194  THR194     -0.2211
    122  CG2       -2.4710   28.2310  -20.0840 C.3   194  THR194      0.0375
    123  N         -7.6190   25.9380  -20.6790 N.3   196  THR196     -0.1203
    124  CA        -8.1980   25.3150  -19.4750 C.3   196  THR196      0.1994
    125  C         -8.7040   26.3910  -18.5110 C.2   196  THR196      0.2617
    126  O         -9.8820   26.3690  -18.0450 O.2   196  THR196     -0.2717
    127  CB        -7.1960   24.3880  -18.7750 C.3   196  THR196      0.1784
    128  OG1       -6.8980   23.2990  -19.6470 O.3   196  THR196     -0.2211
    129  CG2       -7.7580   23.8360  -17.4930 C.3   196  THR196      0.0376
    130  N         -7.8440   27.3660  -18.2450 N.am  197  ALA197     -0.1979
    131  CA        -8.1760   28.3770  -17.2540 C.3   197  ALA197      0.1597
    132  C         -9.2830   29.2860  -17.7380 C.2   197  ALA197      0.2287
    133  O        -10.1560   29.6440  -16.9670 O.2   197  ALA197     -0.2864
    134  CB        -6.9820   29.1770  -16.8710 C.3   197  ALA197      0.0319
    135  N        -12.5210   27.7550  -17.3780 N.3   200  ALA200     -0.1231
    136  CA       -12.9010   27.7020  -15.9510 C.3   200  ALA200      0.1694
    137  C        -13.4460   29.0310  -15.4260 C.2   200  ALA200      0.2591
    138  O        -14.3630   29.0410  -14.6780 O.2   200  ALA200     -0.2718
    139  CB       -11.7240   27.2990  -15.1320 C.3   200  ALA200      0.0304
    140  N        -12.8320   30.1500  -15.7900 N.am  201  VAL201     -0.1980
    141  CA       -13.2910   31.4740  -15.3300 C.3   201  VAL201      0.1595
    142  C        -14.3400   32.0990  -16.2280 C.2   201  VAL201      0.2287
    143  O        -14.6570   33.2850  -16.0960 O.2   201  VAL201     -0.2864
    144  CB       -12.1060   32.4830  -15.1360 C.3   201  VAL201      0.0276
    145  CG1      -11.0880   31.9030  -14.1460 C.3   201  VAL201      0.0022
    146  CG2      -11.4610   32.8550  -16.4540 C.3   201  VAL201      0.0022
    147  N        -17.1870   34.6310  -15.0200 N.3   204  ILE204     -0.1231
    148  CA       -16.7660   35.1800  -13.7340 C.3   204  ILE204      0.1692
    149  C        -16.1630   36.5650  -13.9990 C.2   204  ILE204      0.2592
    150  O        -15.5870   36.7880  -15.0750 O.2   204  ILE204     -0.2718
    151  CB       -15.7100   34.2830  -13.0650 C.3   204  ILE204      0.0266
    152  CG1      -16.1270   32.7960  -13.0780 C.3   204  ILE204      0.0019
    153  CG2      -15.4300   34.7410  -11.6650 C.3   204  ILE204      0.0020
    154  CD1      -17.4960   32.5040  -12.5940 C.3   204  ILE204      0.0001
    155  N        -16.3230   37.5020  -13.0540 N.am  205  VAL205     -0.1966
    156  CA       -15.6480   38.8120  -13.1440 C.3   205  VAL205      0.1727
    157  C        -14.1520   38.6100  -12.7690 C.2   205  VAL205      0.2616
    158  O        -13.8560   37.8850  -11.8220 O.2   205  VAL205     -0.2715
    159  CB       -16.3250   39.8500  -12.2270 C.3   205  VAL205      0.0290
    160  CG1      -15.6340   41.2070  -12.3000 C.3   205  VAL205      0.0023
    161  CG2      -17.7770   40.0270  -12.6780 C.3   205  VAL205      0.0023
    162  N        -13.2160   39.1790  -13.5350 N.am  206  HIS206     -0.1959
    163  CA       -11.7640   39.0100  -13.2460 C.3   206  HIS206      0.1787
    164  C        -10.8980   40.0230  -14.0130 C.2   206  HIS206      0.2620
    165  O        -11.3160   40.5550  -15.0470 O.2   206  HIS206     -0.2715
    166  CB       -11.2690   37.5530  -13.5280 C.3   206  HIS206      0.0785
    167  CG       -11.4080   37.1340  -14.9590 C.ar  206  HIS206      0.0821
    168  ND1      -10.5340   37.5440  -15.9430 N.ar  206  HIS206     -0.2267
    169  CD2      -12.3410   36.3710  -15.5780 C.ar  206  HIS206      0.1154
    170  CE1      -10.9230   37.0570  -17.1090 C.ar  206  HIS206      0.1986
    171  NE2      -12.0250   36.3500  -16.9160 N.ar  206  HIS206     -0.2212
    172  N         -9.7030   40.2910  -13.4800 N.am  207  MET207     -0.1977
    173  CA        -8.6670   41.0820  -14.1700 C.3   207  MET207      0.1605
    174  C         -8.2260   40.3550  -15.4360 C.2   207  MET207      0.2287
    175  O         -8.2940   39.1320  -15.5170 O.2   207  MET207     -0.2864
    176  CB        -7.4350   41.2760  -13.2660 C.3   207  MET207      0.0413
    177  CG        -6.8760   39.9750  -12.7220 C.3   207  MET207      0.0598
    178  SD        -5.3400   40.3400  -11.8980 S.3   207  MET207     -0.1393
    179  CE        -6.0020   41.3530  -10.5280 C.3   207  MET207      0.0692
    180  N          1.4230   37.3660  -12.6620 N.3   233  ASP233     -0.1239
    181  CA         2.1400   38.5370  -13.2290 C.3   233  ASP233      0.1674
    182  C          2.8500   39.4000  -12.1740 C.2   233  ASP233      0.2266
    183  O          2.8020   39.0930  -10.9750 O.2   233  ASP233     -0.2867
    184  CB         1.2530   39.3670  -14.1760 C.3   233  ASP233      0.1410
    185  CG         0.1970   40.1610  -13.4640 C.2   233  ASP233      0.3668
    186  OD1       -0.6320   40.7980  -14.1580 O.co2 233  ASP233     -0.2456
    187  OD2        0.1740   40.1480  -12.2180 O.co2 233  ASP233     -0.2456
    188  N          1.2600   40.6880   -8.8290 N.3   236  LEU236     -0.1245
    189  CA         0.8560   39.6730   -7.8410 C.3   236  LEU236      0.1561
    190  C          1.4020   39.8860   -6.4210 C.2   236  LEU236      0.2260
    191  O          0.6940   39.6240   -5.4400 O.2   236  LEU236     -0.2867
    192  CB         1.2500   38.2680   -8.3260 C.3   236  LEU236      0.0270
    193  CG         0.3290   37.1420   -7.8660 C.3   236  LEU236      0.0019
    194  CD1       -1.0070   37.3020   -8.5460 C.3   236  LEU236      0.0001
    195  CD2        0.8910   35.7990   -8.1950 C.3   236  LEU236      0.0001
    196  N         -0.6880   41.8210   -3.6680 N.3   239  THR239     -0.1218
    197  CA        -1.7010   40.9950   -3.0510 C.3   239  THR239      0.1862
    198  C         -1.0460   40.0780   -2.0070 C.2   239  THR239      0.2287
    199  O         -1.5500   39.9250   -0.8850 O.2   239  THR239     -0.2866
    200  CB        -2.4110   40.1400   -4.1260 C.3   239  THR239      0.1770
    201  OG1       -2.8490   40.9850   -5.2070 O.3   239  THR239     -0.2211
    202  CG2       -3.6060   39.3780   -3.5340 C.3   239  THR239      0.0375
@<TRIPOS>BOND
     1   118   117    1
     2   118   119    2
     3   117   116    1
     4   117   120    1
     5   123   124    1
     6   120   122    1
     7   120   121    1
     8   128   127    1
     9   124   127    1
    10   124   125    1
    11   127   129    1
    12   125   130   am
    13   125   126    2
    14   130   131    1
    15   132   131    1
    16   132   133    2
    17   135   136    1
    18   131   134    1
    19   170   171   ar
    20   170   168   ar
    21   171   169   ar
    22   146   144    1
    23   142   143    2
    24   142   141    1
    25   136   137    1
    26   136   139    1
    27   168   167   ar
    28   140   137   am
    29   140   141    1
    30   111   110    2
    31   169   167   ar
    32   175   174    2
    33   115   113    1
    34   174   173    1
    35   137   138    2
    36   141   144    1
    37   113   114    1
    38   113   112    1
    39   110   109    1
    40   144   145    1
    41   150   149    2
    42   165   164    2
    43   147   148    1
    44   167   166    1
    45     4     3    2
    46     7     5    1
    47   184   185    1
    48   184   181    1
    49   173   172    1
    50   173   176    1
    51   186   185   ar
    52   112   109    1
    53   164   172   am
    54   164   163    1
    55   149   148    1
    56   149   155   am
    57   109   108    1
    58     1     2    1
    59   148   151    1
    60   162   163    1
    61   162   157   am
    62   102   101    1
    63   166   163    1
    64     3     2    1
    65     3     9   am
    66   185   187   ar
    67    19    18    2
    68   176   177    1
    69   181   180    1
    70   181   182    1
    71   156   155    1
    72   156   157    1
    73   156   159    1
    74    11    10    1
    75    11    12    2
    76   152   151    1
    77   152   154    1
    78    27    28    1
    79    27    24    1
    80   151   153    1
    81    16    17    1
    82     2     5    1
    83     5     6    1
    84    10     9    1
    85    10    13    1
    86   108   106   am
    87   107   106    2
    88   157   158    2
    89   177   178    1
    90   161   159    1
    91   103   101    1
    92    18    23   am
    93    18    17    1
    94    14    13    1
    95   106   105    1
    96   101   100    1
    97   160   159    1
    98    24    23    1
    99    24    25    1
   100   182   183    2
   101   100    97    1
   102    17    20    1
   103   178   179    1
   104    13    15    1
   105     6     8    1
   106    35    34    1
   107   105   104    1
   108   104    98   am
   109    29    25   am
   110    29    30    1
   111    20    21    1
   112    20    22    1
   113    25    26    2
   114    97    98    1
   115    97    96    1
   116    34    33    1
   117    34    36    1
   118    98    99    2
   119    33    30    1
   120    32    31    2
   121    30    31    1
   122    86    85    1
   123    95    94    1
   124    83    85   ar
   125    83    81   ar
   126    85    84   ar
   127   188   189    1
   128    94    93    1
   129    81    80   ar
   130   194   193    1
   131   192   193    1
   132   192   189    1
   133   195   193    1
   134    42    41    1
   135    41    38    1
   136    38    37    1
   137    38    39    1
   138   189   190    1
   139    84    82   ar
   140    80    82   ar
   141    80    79    1
   142    93    92    1
   143    43    39   am
   144    43    44    1
   145    73    72    1
   146    39    40    2
   147    79    76    1
   148    47    44    1
   149    47    48    1
   150   190   191    2
   151    92    91    1
   152    50    48    1
   153    44    45    1
   154    76    75    1
   155    76    77    1
   156    72    69    1
   157    72    74    1
   158    51    45   am
   159    51    52    1
   160    48    49    1
   161    55    52    1
   162   201   200    1
   163    45    46    2
   164    69    68    1
   165    69    70    1
   166    91    88    1
   167    67    66    1
   168    65    66   ar
   169    65    63   ar
   170    78    77    2
   171    52    53    1
   172    66    64   ar
   173    63    61   ar
   174    64    62   ar
   175    88    87    1
   176    88    89    1
   177   200   202    1
   178   200   197    1
   179    61    62   ar
   180    61    60    1
   181    53    54    2
   182    70    71    2
   183    60    57    1
   184   196   197    1
   185   197   198    1
   186    90    89    2
   187    57    58    1
   188    57    56    1
   189    58    59    2
   190   198   199    2
