@<TRIPOS>MOLECULE
tmp/2beoA00.pdb
 108 108 0 0 0
SMALL
GASTEIGER

@<TRIPOS>ATOM
      1  N         39.3560   56.5550    8.6520 N.3    60  GLN60      -0.1231
      2  CA        39.2000   57.9710    8.9880 C.3    60  GLN60       0.1698
      3  C         38.2810   58.0980   10.1800 C.2    60  GLN60       0.2592
      4  O         37.3880   57.2770   10.3580 O.2    60  GLN60      -0.2718
      5  CB        38.6050   58.7080    7.7690 C.3    60  GLN60       0.0381
      6  CG        38.2290   60.2120    7.9340 C.3    60  GLN60       0.0905
      7  CD        39.4210   61.1660    7.9270 C.2    60  GLN60       0.2608
      8  OE1       40.4410   60.9130    7.2830 O.2    60  GLN60      -0.2717
      9  NE2       39.2610   62.3100    8.5860 N.am   60  GLN60      -0.0878
     10  N         38.5000   59.1350   10.9770 N.am   61  TYR61      -0.1962
     11  CA        37.6550   59.4470   12.1400 C.3    61  TYR61       0.1771
     12  C         36.9640   60.7800   11.9070 C.2    61  TYR61       0.2620
     13  O         37.5850   61.7130   11.4130 O.2    61  TYR61      -0.2715
     14  CB        38.4830   59.5700   13.4250 C.3    61  TYR61       0.0574
     15  CG        39.2470   58.3290   13.7690 C.ar   61  TYR61      -0.0198
     16  CD1       38.6040   57.2400   14.3300 C.ar   61  TYR61      -0.0009
     17  CD2       40.6110   58.2360   13.5310 C.ar   61  TYR61      -0.0009
     18  CE1       39.2990   56.0710   14.6390 C.ar   61  TYR61       0.0417
     19  CE2       41.3130   57.0780   13.8300 C.ar   61  TYR61       0.0417
     20  CZ        40.6510   56.0010   14.3850 C.ar   61  TYR61       0.1957
     21  OH        41.3340   54.8540   14.6830 O.3    61  TYR61      -0.2866
     22  N         35.6800   60.8620   12.2560 N.am   62  TYR62      -0.1960
     23  CA        34.9140   62.1280   12.1490 C.3    62  TYR62       0.1771
     24  C         34.3060   62.5110   13.4960 C.2    62  TYR62       0.2619
     25  O         33.8130   61.6580   14.2380 O.2    62  TYR62      -0.2715
     26  CB        33.7800   62.0630   11.1290 C.3    62  TYR62       0.0574
     27  CG        34.1500   61.6300    9.7330 C.ar   62  TYR62      -0.0198
     28  CD1       33.8550   60.3450    9.3030 C.ar   62  TYR62      -0.0009
     29  CD2       34.7380   62.5170    8.8200 C.ar   62  TYR62      -0.0009
     30  CE1       34.1300   59.9290    8.0100 C.ar   62  TYR62       0.0417
     31  CE2       35.0470   62.0970    7.5130 C.ar   62  TYR62       0.0417
     32  CZ        34.7260   60.7850    7.1200 C.ar   62  TYR62       0.1957
     33  OH        34.9690   60.2910    5.8500 O.3    62  TYR62      -0.2866
     34  N         34.3030   63.8110   13.7690 N.am   63  LYS63      -0.1977
     35  CA        33.7630   64.3760   15.0150 C.3    63  LYS63       0.1596
     36  C         32.4220   65.0610   14.7350 C.2    63  LYS63       0.2287
     37  O         32.1960   65.5770   13.6350 O.2    63  LYS63      -0.2864
     38  CB        34.7560   65.3870   15.6220 C.3    63  LYS63       0.0298
     39  CG        34.1680   66.3160   16.6870 C.3    63  LYS63       0.0038
     40  CD        35.2040   67.1950   17.3090 C.3    63  LYS63       0.0206
     41  CE        34.5660   68.3660   18.0580 C.3    63  LYS63       0.1093
     42  NZ        33.8870   69.3360   17.1390 N.3    63  LYS63      -0.1314
     43  N         30.3410   68.0910   14.5530 N.3    65  ALA65      -0.1231
     44  CA        29.5080   68.2470   13.3850 C.3    65  ALA65       0.1694
     45  C         30.3200   68.1160   12.1400 C.2    65  ALA65       0.2592
     46  O         31.3990   68.7200   11.9900 O.2    65  ALA65      -0.2718
     47  CB        28.9090   69.6330   13.3940 C.3    65  ALA65       0.0304
     48  N         29.7700   67.3530   11.2380 N.am   66  PHE66      -0.1976
     49  CA        30.3920   67.1080    9.9830 C.3    66  PHE66       0.1639
     50  C         29.4320   66.3090    9.1540 C.2    66  PHE66       0.2290
     51  O         28.4990   65.6950    9.6830 O.2    66  PHE66      -0.2864
     52  CB        31.6950   66.3370   10.1500 C.3    66  PHE66       0.0560
     53  CG        32.6360   66.5550    9.0400 C.ar   66  PHE66      -0.0200
     54  CD1       33.2710   67.7830    8.8960 C.ar   66  PHE66      -0.0042
     55  CD2       32.8850   65.5590    8.1210 C.ar   66  PHE66      -0.0042
     56  CE1       34.1430   68.0020    7.8570 C.ar   66  PHE66      -0.0003
     57  CE2       33.7490   65.7700    7.0790 C.ar   66  PHE66      -0.0003
     58  CZ        34.3840   66.9850    6.9460 C.ar   66  PHE66      -0.0000
     59  N         37.3630   70.6670    3.3730 N.3   121  LYS121     -0.1231
     60  CA        38.0000   70.4760    4.6850 C.3   121  LYS121      0.1693
     61  C         38.6750   69.1010    4.6640 C.2   121  LYS121      0.2591
     62  O         39.8800   68.9800    4.8620 O.2   121  LYS121     -0.2718
     63  CB        36.9420   70.4880    5.8030 C.3   121  LYS121      0.0285
     64  CG        37.2590   71.3630    6.9910 C.3   121  LYS121      0.0035
     65  CD        36.8020   72.8170    6.7280 C.3   121  LYS121      0.0206
     66  CE        36.4600   73.5340    8.0170 C.3   121  LYS121      0.1093
     67  NZ        35.5790   74.6740    7.7520 N.3   121  LYS121     -0.1314
     68  N         37.8690   68.0800    4.3680 N.am  122  GLN122     -0.1979
     69  CA        38.3360   66.6820    4.2470 C.3   122  GLN122      0.1601
     70  C         39.5220   66.5140    3.3120 C.2   122  GLN122      0.2287
     71  O         40.5040   65.8820    3.6720 O.2   122  GLN122     -0.2864
     72  CB        37.2040   65.7520    3.7760 C.3   122  GLN122      0.0394
     73  CG        36.7290   64.7980    4.8320 C.3   122  GLN122      0.0908
     74  CD        35.6300   63.8800    4.3420 C.2   122  GLN122      0.2608
     75  OE1       35.7940   62.6620    4.3230 O.2   122  GLN122     -0.2717
     76  NE2       34.5220   64.4600    3.9090 N.am  122  GLN122     -0.0878
     77  N         42.7010   68.2080    4.7470 N.3   125  TYR125     -0.1241
     78  CA        43.1170   67.4580    5.9550 C.3   125  TYR125      0.1605
     79  C         43.9690   66.2560    5.5620 C.2   125  TYR125      0.2264
     80  O         45.0310   66.0090    6.1480 O.2   125  TYR125     -0.2867
     81  CB        41.8850   66.9660    6.7170 C.3   125  TYR125      0.0534
     82  CG        42.1620   66.0800    7.9230 C.ar  125  TYR125     -0.0201
     83  CD1       42.4790   66.6290    9.1700 C.ar  125  TYR125     -0.0009
     84  CD2       42.0190   64.6960    7.8360 C.ar  125  TYR125     -0.0009
     85  CE1       42.6920   65.8050   10.2940 C.ar  125  TYR125      0.0417
     86  CE2       42.2300   63.8710    8.9480 C.ar  125  TYR125      0.0417
     87  CZ        42.5690   64.4210   10.1620 C.ar  125  TYR125      0.1957
     88  OH        42.7520   63.5630   11.2150 O.3   125  TYR125     -0.2866
     89  N         46.7050   73.2050    8.8650 N.3   213  TRP213     -0.1241
     90  CA        45.3240   72.8770    8.5080 C.3   213  TRP213      0.1605
     91  C         44.3610   73.2580    9.6310 C.2   213  TRP213      0.2264
     92  O         43.3320   73.8700    9.3810 O.2   213  TRP213     -0.2867
     93  CB        45.1920   71.3900    8.1680 C.3   213  TRP213      0.0550
     94  CG        43.8160   70.9820    7.8660 C.ar  213  TRP213      0.0003
     95  CD1       43.2020   71.0130    6.6550 C.ar  213  TRP213      0.0946
     96  CD2       42.8530   70.4990    8.7980 C.ar  213  TRP213      0.0152
     97  NE1       41.9130   70.5830    6.7740 N.ar  213  TRP213     -0.2442
     98  CE2       41.6730   70.2570    8.0800 C.ar  213  TRP213      0.0810
     99  CE3       42.8750   70.2480   10.1760 C.ar  213  TRP213      0.0012
    100  CZ2       40.5190   69.7610    8.6860 C.ar  213  TRP213      0.0191
    101  CZ3       41.7340   69.7530   10.7810 C.ar  213  TRP213      0.0001
    102  CH2       40.5740   69.5050   10.0360 C.ar  213  TRP213      0.0015
    103  N         39.9750   75.3730   11.5860 N.3   218  CYS218     -0.1235
    104  CA        39.3510   75.6220   12.8990 C.3   218  CYS218      0.1677
    105  C         40.1490   76.7170   13.6710 C.2   218  CYS218      0.2270
    106  O         40.7190   76.4410   14.7340 O.2   218  CYS218     -0.2867
    107  CB        39.3280   74.3120   13.7150 C.3   218  CYS218      0.0956
    108  SG        38.8790   72.7930   12.8170 S.3   218  CYS218     -0.0801
@<TRIPOS>BOND
     1    70    71    2
     2    70    69    1
     3    59    60    1
     4    72    69    1
     5    72    73    1
     6    76    74   am
     7    69    68    1
     8    75    74    2
     9    74    73    1
    10    68    61   am
    11    61    60    1
    12    61    62    2
    13    60    63    1
    14    77    78    1
    15    79    78    1
    16    79    80    2
    17    63    64    1
    18    33    32    1
    19    78    81    1
    20    95    97   ar
    21    95    94   ar
    22    81    82    1
    23    65    64    1
    24    65    66    1
    25    97    98   ar
    26    58    57   ar
    27    58    56   ar
    28    57    55   ar
    29    32    31   ar
    30    32    30   ar
    31     8     7    2
    32    31    29   ar
    33    67    66    1
    34     5     6    1
    35     5     2    1
    36    84    82   ar
    37    84    86   ar
    38    56    54   ar
    39    94    93    1
    40    94    96   ar
    41    82    83   ar
    42     7     6    1
    43     7     9   am
    44    30    28   ar
    45    98   100   ar
    46    98    96   ar
    47    55    53   ar
    48    93    90    1
    49    90    89    1
    50    90    91    1
    51     1     2    1
    52   100   102   ar
    53    96    99   ar
    54    29    27   ar
    55    54    53   ar
    56    86    87   ar
    57     2     3    1
    58    53    52    1
    59    50    51    2
    60    50    49    1
    61    83    85   ar
    62    28    27   ar
    63    92    91    2
    64    27    26    1
    65    49    52    1
    66    49    48    1
    67   102   101   ar
    68    87    85   ar
    69    87    88    1
    70    99   101   ar
    71     3     4    2
    72     3    10   am
    73    10    11    1
    74    26    23    1
    75    48    45   am
    76    13    12    2
    77   103   104    1
    78    12    11    1
    79    12    22   am
    80    46    45    2
    81    11    14    1
    82    45    44    1
    83    23    22    1
    84    23    24    1
    85   108   107    1
    86   104   105    1
    87   104   107    1
    88    44    47    1
    89    44    43    1
    90    14    15    1
    91    24    34   am
    92    24    25    2
    93    17    15   ar
    94    17    19   ar
    95    37    36    2
    96   105   106    2
    97    15    16   ar
    98    34    35    1
    99    19    20   ar
   100    16    18   ar
   101    20    18   ar
   102    20    21    1
   103    36    35    1
   104    35    38    1
   105    38    39    1
   106    39    40    1
   107    42    41    1
   108    40    41    1
