@<TRIPOS>MOLECULE
tmp/2beoA01.pdb
 144 140 0 0 0
SMALL
GASTEIGER

@<TRIPOS>ATOM
      1  N         31.4460   60.9120   18.0760 N.3    44  ILE44      -0.1245
      2  CA        32.6740   60.5630   17.3690 C.3    44  ILE44       0.1561
      3  C         32.4010   59.2530   16.6100 C.2    44  ILE44       0.2260
      4  O         31.7230   58.3480   17.1190 O.2    44  ILE44      -0.2867
      5  CB        33.8910   60.4270   18.3380 C.3    44  ILE44       0.0252
      6  CG1       34.0270   61.6700   19.2370 C.3    44  ILE44       0.0019
      7  CG2       35.1790   60.2620   17.5430 C.3    44  ILE44       0.0019
      8  CD1       34.9810   61.4950   20.4110 C.3    44  ILE44       0.0001
      9  N         39.3560   56.5550    8.6520 N.3    60  GLN60      -0.1231
     10  CA        39.2000   57.9710    8.9880 C.3    60  GLN60       0.1698
     11  C         38.2810   58.0980   10.1800 C.2    60  GLN60       0.2592
     12  O         37.3880   57.2770   10.3580 O.2    60  GLN60      -0.2718
     13  CB        38.6050   58.7080    7.7690 C.3    60  GLN60       0.0381
     14  CG        38.2290   60.2120    7.9340 C.3    60  GLN60       0.0905
     15  CD        39.4210   61.1660    7.9270 C.2    60  GLN60       0.2608
     16  OE1       40.4410   60.9130    7.2830 O.2    60  GLN60      -0.2717
     17  NE2       39.2610   62.3100    8.5860 N.am   60  GLN60      -0.0878
     18  N         38.5000   59.1350   10.9770 N.am   61  TYR61      -0.1962
     19  CA        37.6550   59.4470   12.1400 C.3    61  TYR61       0.1771
     20  C         36.9640   60.7800   11.9070 C.2    61  TYR61       0.2620
     21  O         37.5850   61.7130   11.4130 O.2    61  TYR61      -0.2715
     22  CB        38.4830   59.5700   13.4250 C.3    61  TYR61       0.0574
     23  CG        39.2470   58.3290   13.7690 C.ar   61  TYR61      -0.0198
     24  CD1       38.6040   57.2400   14.3300 C.ar   61  TYR61      -0.0009
     25  CD2       40.6110   58.2360   13.5310 C.ar   61  TYR61      -0.0009
     26  CE1       39.2990   56.0710   14.6390 C.ar   61  TYR61       0.0417
     27  CE2       41.3130   57.0780   13.8300 C.ar   61  TYR61       0.0417
     28  CZ        40.6510   56.0010   14.3850 C.ar   61  TYR61       0.1957
     29  OH        41.3340   54.8540   14.6830 O.3    61  TYR61      -0.2866
     30  N         35.6800   60.8620   12.2560 N.am   62  TYR62      -0.1960
     31  CA        34.9140   62.1280   12.1490 C.3    62  TYR62       0.1771
     32  C         34.3060   62.5110   13.4960 C.2    62  TYR62       0.2619
     33  O         33.8130   61.6580   14.2380 O.2    62  TYR62      -0.2715
     34  CB        33.7800   62.0630   11.1290 C.3    62  TYR62       0.0574
     35  CG        34.1500   61.6300    9.7330 C.ar   62  TYR62      -0.0198
     36  CD1       33.8550   60.3450    9.3030 C.ar   62  TYR62      -0.0009
     37  CD2       34.7380   62.5170    8.8200 C.ar   62  TYR62      -0.0009
     38  CE1       34.1300   59.9290    8.0100 C.ar   62  TYR62       0.0417
     39  CE2       35.0470   62.0970    7.5130 C.ar   62  TYR62       0.0417
     40  CZ        34.7260   60.7850    7.1200 C.ar   62  TYR62       0.1957
     41  OH        34.9690   60.2910    5.8500 O.3    62  TYR62      -0.2866
     42  N         34.3030   63.8110   13.7690 N.am   63  LYS63      -0.1977
     43  CA        33.7630   64.3760   15.0150 C.3    63  LYS63       0.1596
     44  C         32.4220   65.0610   14.7350 C.2    63  LYS63       0.2287
     45  O         32.1960   65.5770   13.6350 O.2    63  LYS63      -0.2864
     46  CB        34.7560   65.3870   15.6220 C.3    63  LYS63       0.0298
     47  CG        34.1680   66.3160   16.6870 C.3    63  LYS63       0.0038
     48  CD        35.2040   67.1950   17.3090 C.3    63  LYS63       0.0206
     49  CE        34.5660   68.3660   18.0580 C.3    63  LYS63       0.1093
     50  NZ        33.8870   69.3360   17.1390 N.3    63  LYS63      -0.1314
     51  N         31.9640   55.3030   17.6940 N.3    87  ILE87      -0.1245
     52  CA        33.0260   54.9850   18.6950 C.3    87  ILE87       0.1561
     53  C         32.8260   55.6180   20.0690 C.2    87  ILE87       0.2260
     54  O         33.3090   55.0750   21.0680 O.2    87  ILE87      -0.2867
     55  CB        34.4820   55.1800   18.1960 C.3    87  ILE87       0.0252
     56  CG1       34.7590   56.5990   17.7270 C.3    87  ILE87       0.0019
     57  CG2       34.7710   54.1850   17.1010 C.3    87  ILE87       0.0019
     58  CD1       36.2600   56.8330   17.4440 C.3    87  ILE87       0.0001
     59  N         42.7010   68.2080    4.7470 N.3   125  TYR125     -0.1241
     60  CA        43.1170   67.4580    5.9550 C.3   125  TYR125      0.1605
     61  C         43.9690   66.2560    5.5620 C.2   125  TYR125      0.2264
     62  O         45.0310   66.0090    6.1480 O.2   125  TYR125     -0.2867
     63  CB        41.8850   66.9660    6.7170 C.3   125  TYR125      0.0534
     64  CG        42.1620   66.0800    7.9230 C.ar  125  TYR125     -0.0201
     65  CD1       42.4790   66.6290    9.1700 C.ar  125  TYR125     -0.0009
     66  CD2       42.0190   64.6960    7.8360 C.ar  125  TYR125     -0.0009
     67  CE1       42.6920   65.8050   10.2940 C.ar  125  TYR125      0.0417
     68  CE2       42.2300   63.8710    8.9480 C.ar  125  TYR125      0.0417
     69  CZ        42.5690   64.4210   10.1620 C.ar  125  TYR125      0.1957
     70  OH        42.7520   63.5630   11.2150 O.3   125  TYR125     -0.2866
     71  N         48.3230   62.9970   14.9250 N.3   145  GLN145     -0.1245
     72  CA        47.1200   62.4950   15.6170 C.3   145  GLN145      0.1566
     73  C         47.0470   63.0320   17.0720 C.2   145  GLN145      0.2260
     74  O         45.9660   63.3960   17.5360 O.2   145  GLN145     -0.2867
     75  CB        46.9670   60.9560   15.5100 C.3   145  GLN145      0.0367
     76  CG        47.6450   60.0840   16.5850 C.3   145  GLN145      0.0905
     77  CD        47.3330   58.5890   16.4130 C.2   145  GLN145      0.2608
     78  OE1       46.9000   58.1500   15.3450 O.2   145  GLN145     -0.2717
     79  NE2       47.5550   57.8110   17.4690 N.am  145  GLN145     -0.0878
     80  N         45.8830   66.7690   16.8830 N.3   148  ILE148     -0.1231
     81  CA        44.4250   66.7920   16.6570 C.3   148  ILE148      0.1692
     82  C         43.7280   66.5860   17.9980 C.2   148  ILE148      0.2591
     83  O         42.8930   67.3900   18.4050 O.2   148  ILE148     -0.2718
     84  CB        43.9950   65.6670   15.6550 C.3   148  ILE148      0.0266
     85  CG1       44.5100   65.9930   14.2460 C.3   148  ILE148      0.0019
     86  CG2       42.4440   65.4930   15.6160 C.3   148  ILE148      0.0020
     87  CD1       44.5780   64.8010   13.3330 C.3   148  ILE148      0.0001
     88  N         44.1050   65.5050   18.6770 N.am  149  LEU149     -0.1980
     89  CA        43.5770   65.1750   20.0290 C.3   149  LEU149      0.1596
     90  C         43.7360   66.3600   20.9910 C.2   149  LEU149      0.2287
     91  O         42.7960   66.7100   21.7060 O.2   149  LEU149     -0.2864
     92  CB        44.2760   63.9260   20.6310 C.3   149  LEU149      0.0297
     93  CG        43.5320   62.5890   20.7320 C.3   149  LEU149      0.0022
     94  CD1       42.5850   62.3190   19.5780 C.3   149  LEU149      0.0001
     95  CD2       44.5290   61.4300   20.9260 C.3   149  LEU149      0.0001
     96  N         41.4240   69.6120   19.7090 N.3   152  VAL152     -0.1231
     97  CA        39.9810   69.3370   19.7500 C.3   152  VAL152      0.1692
     98  C         39.4510   69.0270   21.1620 C.2   152  VAL152      0.2592
     99  O         38.3430   69.4530   21.5060 O.2   152  VAL152     -0.2718
    100  CB        39.5880   68.2190   18.7430 C.3   152  VAL152      0.0266
    101  CG1       38.0940   67.9300   18.7820 C.3   152  VAL152      0.0020
    102  CG2       39.9720   68.6310   17.3390 C.3   152  VAL152      0.0020
    103  N         40.2310   68.2990   21.9650 N.am  153  TYR153     -0.1976
    104  CA        39.7960   67.8840   23.3290 C.3   153  TYR153      0.1639
    105  C         40.7480   68.2980   24.4530 C.2   153  TYR153      0.2290
    106  O         40.6970   67.7330   25.5460 O.2   153  TYR153     -0.2864
    107  CB        39.5910   66.3660   23.3800 C.3   153  TYR153      0.0560
    108  CG        38.6560   65.8500   22.3250 C.ar  153  TYR153     -0.0198
    109  CD1       37.2710   65.9280   22.4930 C.ar  153  TYR153     -0.0009
    110  CD2       39.1480   65.2850   21.1490 C.ar  153  TYR153     -0.0009
    111  CE1       36.3930   65.4440   21.5130 C.ar  153  TYR153      0.0417
    112  CE2       38.2830   64.7970   20.1620 C.ar  153  TYR153      0.0417
    113  CZ        36.9080   64.8800   20.3490 C.ar  153  TYR153      0.1957
    114  OH        36.0590   64.4060   19.3750 O.3   153  TYR153     -0.2866
    115  N         39.3380   63.0210   26.6270 N.3   165  LEU165     -0.1245
    116  CA        38.6690   61.9180   25.9440 C.3   165  LEU165      0.1561
    117  C         38.5540   60.8060   26.9540 C.2   165  LEU165      0.2260
    118  O         39.5730   60.3830   27.5200 O.2   165  LEU165     -0.2867
    119  CB        39.4650   61.4440   24.7220 C.3   165  LEU165      0.0270
    120  CG        39.1260   62.1520   23.4040 C.3   165  LEU165      0.0019
    121  CD1       40.3040   62.1590   22.4360 C.3   165  LEU165      0.0001
    122  CD2       37.8790   61.5320   22.7560 C.3   165  LEU165      0.0001
    123  N         42.0760   54.2330   19.9720 N.3   173  LEU173     -0.1245
    124  CA        43.4070   54.6890   19.5050 C.3   173  LEU173      0.1561
    125  C         43.5700   54.7590   17.9870 C.2   173  LEU173      0.2260
    126  O         44.1000   55.7310   17.4570 O.2   173  LEU173     -0.2867
    127  CB        44.4860   53.7740   20.1330 C.3   173  LEU173      0.0270
    128  CG        45.9930   54.1240   20.1580 C.3   173  LEU173      0.0019
    129  CD1       46.7140   53.2500   21.1950 C.3   173  LEU173      0.0001
    130  CD2       46.6850   53.9950   18.7960 C.3   173  LEU173      0.0001
    131  N         46.7050   73.2050    8.8650 N.3   213  TRP213     -0.1241
    132  CA        45.3240   72.8770    8.5080 C.3   213  TRP213      0.1605
    133  C         44.3610   73.2580    9.6310 C.2   213  TRP213      0.2264
    134  O         43.3320   73.8700    9.3810 O.2   213  TRP213     -0.2867
    135  CB        45.1920   71.3900    8.1680 C.3   213  TRP213      0.0550
    136  CG        43.8160   70.9820    7.8660 C.ar  213  TRP213      0.0003
    137  CD1       43.2020   71.0130    6.6550 C.ar  213  TRP213      0.0946
    138  CD2       42.8530   70.4990    8.7980 C.ar  213  TRP213      0.0152
    139  NE1       41.9130   70.5830    6.7740 N.ar  213  TRP213     -0.2442
    140  CE2       41.6730   70.2570    8.0800 C.ar  213  TRP213      0.0810
    141  CE3       42.8750   70.2480   10.1760 C.ar  213  TRP213      0.0012
    142  CZ2       40.5190   69.7610    8.6860 C.ar  213  TRP213      0.0191
    143  CZ3       41.7340   69.7530   10.7810 C.ar  213  TRP213      0.0001
    144  CH2       40.5740   69.5050   10.0360 C.ar  213  TRP213      0.0015
@<TRIPOS>BOND
     1    59    60    1
     2    61    60    1
     3    61    62    2
     4    41    40    1
     5    60    63    1
     6   137   139   ar
     7   137   136   ar
     8    63    64    1
     9   139   140   ar
    10    40    39   ar
    11    40    38   ar
    12    16    15    2
    13    39    37   ar
    14    13    14    1
    15    13    10    1
    16    66    64   ar
    17    66    68   ar
    18   136   135    1
    19   136   138   ar
    20    64    65   ar
    21    15    14    1
    22    15    17   am
    23    38    36   ar
    24   140   142   ar
    25   140   138   ar
    26   135   132    1
    27   132   131    1
    28   132   133    1
    29     9    10    1
    30   142   144   ar
    31   138   141   ar
    32    37    35   ar
    33    68    69   ar
    34    10    11    1
    35    65    67   ar
    36    36    35   ar
    37   134   133    2
    38    35    34    1
    39   144   143   ar
    40    69    67   ar
    41    69    70    1
    42   141   143   ar
    43    11    12    2
    44    11    18   am
    45    18    19    1
    46    34    31    1
    47    21    20    2
    48    20    19    1
    49    20    30   am
    50    19    22    1
    51    31    30    1
    52    31    32    1
    53    87    85    1
    54    22    23    1
    55    32    42   am
    56    32    33    2
    57    25    23   ar
    58    25    27   ar
    59    45    44    2
    60    42    43    1
    61    23    24   ar
    62    27    28   ar
    63    85    84    1
    64    24    26   ar
    65    28    26   ar
    66    28    29    1
    67    44    43    1
    68    71    72    1
    69    43    46    1
    70    78    77    2
    71    75    72    1
    72    75    76    1
    73    86    84    1
    74    72    73    1
    75    46    47    1
    76    84    81    1
    77    77    76    1
    78    77    79   am
    79     3     4    2
    80     3     2    1
    81    81    80    1
    82    81    82    1
    83    47    48    1
    84    73    74    2
    85    57    55    1
    86    50    49    1
    87    48    49    1
    88   102   100    1
    89     2     1    1
    90     2     5    1
    91    58    56    1
    92   126   125    2
    93     7     5    1
    94    51    52    1
    95    56    55    1
    96   125   124    1
    97    82    83    2
    98    82    88   am
    99    55    52    1
   100     5     6    1
   101    88    89    1
   102    52    53    1
   103   100   101    1
   104   100    97    1
   105   130   128    1
   106     6     8    1
   107   114   113    1
   108   124   123    1
   109   124   127    1
   110    94    93    1
   111    96    97    1
   112    97    98    1
   113    89    92    1
   114    89    90    1
   115    53    54    2
   116   127   128    1
   117   128   129    1
   118   112   113   ar
   119   112   110   ar
   120   113   111   ar
   121    92    93    1
   122    93    95    1
   123    90    91    2
   124   110   108   ar
   125    98    99    2
   126    98   103   am
   127   111   109   ar
   128   103   104    1
   129   108   109   ar
   130   108   107    1
   131   121   120    1
   132   122   120    1
   133   104   107    1
   134   104   105    1
   135   120   119    1
   136   105   106    2
   137   119   116    1
   138   116   115    1
   139   116   117    1
   140   117   118    2
