@<TRIPOS>MOLECULE
tmp/2besC00.pdb
 82 78 0 0 0
SMALL
GASTEIGER

@<TRIPOS>ATOM
      1  N         36.9790    3.1950   49.1240 N.3     9  ASP9       -0.1225
      2  CA        37.3240    1.9290   48.5160 C.3     9  ASP9        0.1805
      3  C         38.7370    1.5960   49.0110 C.2     9  ASP9        0.2598
      4  O         39.2750    2.2870   49.8760 O.2     9  ASP9       -0.2718
      5  CB        37.2250    1.9830   46.9810 C.3     9  ASP9        0.1424
      6  CG        38.2910    2.8140   46.3120 C.2     9  ASP9        0.3668
      7  OD1       38.9600    3.5880   47.0300 O.co2   9  ASP9       -0.2456
      8  OD2       38.4550    2.6860   45.0760 O.co2   9  ASP9       -0.2456
      9  N         39.3080    0.5240   48.4720 N.am   10  HIS10      -0.1961
     10  CA        40.6530    0.0550   48.8180 C.3    10  HIS10       0.1787
     11  C         41.7430    1.1250   48.7360 C.2    10  HIS10       0.2620
     12  O         42.6460    1.1520   49.5700 O.2    10  HIS10      -0.2715
     13  CB        41.0450   -1.1080   47.8990 C.3    10  HIS10       0.0785
     14  CG        40.9370   -0.7850   46.4400 C.ar   10  HIS10       0.0821
     15  ND1       39.7930   -1.0200   45.7070 N.ar   10  HIS10      -0.2267
     16  CD2       41.8240   -0.2270   45.5820 C.ar   10  HIS10       0.1154
     17  CE1       39.9830   -0.6260   44.4610 C.ar   10  HIS10       0.1986
     18  NE2       41.2070   -0.1410   44.3590 N.ar   10  HIS10      -0.2212
     19  N         41.6610    1.9870   47.7240 N.am   11  ALA11      -0.1977
     20  CA        42.6920    2.9960   47.4700 C.3    11  ALA11       0.1597
     21  C         42.7410    4.0820   48.5460 C.2    11  ALA11       0.2287
     22  O         43.7900    4.6850   48.7740 O.2    11  ALA11      -0.2864
     23  CB        42.4880    3.6220   46.0940 C.3    11  ALA11       0.0319
     24  N         41.3450   -5.2730   47.5970 N.3    40  ALA40      -0.1245
     25  CA        41.9840   -4.6230   46.4550 C.3    40  ALA40       0.1562
     26  C         41.1100   -4.3800   45.2220 C.2    40  ALA40       0.2260
     27  O         41.3880   -3.4670   44.4460 O.2    40  ALA40      -0.2867
     28  CB        43.2020   -5.4300   46.0510 C.3    40  ALA40       0.0290
     29  N         34.1090    1.6450   44.5240 N.3    44  TYR44      -0.1241
     30  CA        33.8460    2.8350   45.3360 C.3    44  TYR44       0.1605
     31  C         32.3870    3.3560   45.4020 C.2    44  TYR44       0.2264
     32  O         31.9770    3.8300   46.4580 O.2    44  TYR44      -0.2867
     33  CB        34.7660    4.0020   44.9180 C.3    44  TYR44       0.0534
     34  CG        34.5850    4.4990   43.4940 C.ar   44  TYR44      -0.0201
     35  CD1       33.5920    5.4220   43.1730 C.ar   44  TYR44      -0.0009
     36  CD2       35.4200    4.0560   42.4720 C.ar   44  TYR44      -0.0009
     37  CE1       33.4290    5.8790   41.8680 C.ar   44  TYR44       0.0417
     38  CE2       35.2650    4.5090   41.1670 C.ar   44  TYR44       0.0417
     39  CZ        34.2680    5.4190   40.8710 C.ar   44  TYR44       0.1957
     40  OH        34.1120    5.8690   39.5760 O.3    44  TYR44      -0.2866
     41  N         41.5520    6.8330   45.3680 N.3    68  GLY68      -0.1210
     42  CA        42.9060    7.0900   44.9120 C.3    68  GLY68       0.1956
     43  C         43.1190    8.5710   44.6590 C.2    68  GLY68       0.2612
     44  O         44.0730    9.1690   45.1600 O.2    68  GLY68      -0.2717
     45  N         42.2140    9.1560   43.8790 N.am   69  SER69      -0.1952
     46  CA        42.2490   10.5770   43.5440 C.3    69  SER69       0.1924
     47  C         41.1170   11.3560   44.2140 C.2    69  SER69       0.2314
     48  O         41.1980   12.5770   44.3420 O.2    69  SER69      -0.2863
     49  CB        42.1480   10.7530   42.0300 C.3    69  SER69       0.2116
     50  OG        40.8710   10.3590   41.5660 O.3    69  SER69      -0.2180
     51  N         38.1350   11.6590   42.9460 N.3    71  ASN71      -0.1225
     52  CA        37.2500   12.2770   41.9240 C.3    71  ASN71       0.1785
     53  C         36.0400   11.3990   41.6020 C.2    71  ASN71       0.2598
     54  O         34.9230   11.9040   41.5390 O.2    71  ASN71      -0.2718
     55  CB        38.0630   12.6140   40.6760 C.3    71  ASN71       0.1169
     56  CG        38.5800   14.0410   40.7240 C.2    71  ASN71       0.2627
     57  OD1       37.8870   14.9430   41.1900 O.2    71  ASN71      -0.2716
     58  ND2       39.7980   14.2500   40.2450 N.am   71  ASN71      -0.0877
     59  N         36.2610   10.1180   41.4000 N.am   72  GLY72      -0.1942
     60  CA        35.1640    9.2400   41.1190 C.3    72  GLY72       0.2014
     61  C         34.2670    9.1590   42.3470 C.2    72  GLY72       0.2638
     62  O         33.0580    8.8940   42.2420 O.2    72  GLY72      -0.2714
     63  N         34.8650    9.3740   43.5090 N.am   73  GLU73      -0.1977
     64  CA        34.1700    9.3130   44.7870 C.3    73  GLU73       0.1602
     65  C         33.2460   10.5080   44.9820 C.2    73  GLU73       0.2287
     66  O         32.1260   10.3430   45.4600 O.2    73  GLU73      -0.2864
     67  CB        35.1820    9.1820   45.9310 C.3    73  GLU73       0.0415
     68  CG        35.9040    7.8370   45.9690 C.3    73  GLU73       0.1163
     69  CD        36.8830    7.6400   44.8220 C.2    73  GLU73       0.3649
     70  OE1       37.7150    8.5340   44.5730 O.co2  73  GLU73      -0.2457
     71  OE2       36.8260    6.5820   44.1650 O.co2  73  GLU73      -0.2457
     72  N         46.3290    8.8180   47.4560 N.3   111  ARG111     -0.1245
     73  CA        47.5790    8.7040   46.6960 C.3   111  ARG111      0.1563
     74  C         48.1900   10.0800   46.3970 C.2   111  ARG111      0.2260
     75  O         49.3200   10.1630   45.9150 O.2   111  ARG111     -0.2867
     76  CB        47.3200    7.9490   45.3800 C.3   111  ARG111      0.0307
     77  CG        46.9810    6.4710   45.5890 C.3   111  ARG111      0.0489
     78  CD        46.3660    5.8220   44.3550 C.3   111  ARG111      0.2205
     79  NE        46.2960    4.3670   44.4940 N.pl3 111  ARG111     -0.0865
     80  CZ        45.5050    3.5590   43.7860 C.cat 111  ARG111      0.5346
     81  NH1       44.6810    4.0380   42.8550 N.pl3 111  ARG111      0.1354
     82  NH2       45.5400    2.2490   44.0140 N.pl3 111  ARG111      0.1354
@<TRIPOS>BOND
     1    40    39    1
     2    58    56   am
     3    55    56    1
     4    55    52    1
     5    56    57    2
     6    39    38   ar
     7    39    37   ar
     8    60    59    1
     9    60    61    1
    10    38    36   ar
    11    59    53   am
    12    54    53    2
    13    50    49    1
    14    53    52    1
    15    37    35   ar
    16    52    51    1
    17    49    46    1
    18    62    61    2
    19    61    63   am
    20    36    34   ar
    21    81    80    1
    22    35    34   ar
    23    34    33    1
    24    63    64    1
    25    46    45    1
    26    46    47    1
    27    80    82    1
    28    80    79    2
    29    45    43   am
    30    71    69   ar
    31    47    48    2
    32    78    79    1
    33    78    77    1
    34    18    17   ar
    35    18    16   ar
    36    27    26    2
    37    17    15   ar
    38    29    30    1
    39    70    69   ar
    40    43    42    1
    41    43    44    2
    42    64    65    1
    43    64    67    1
    44    69    68    1
    45    42    41    1
    46    33    30    1
    47    65    66    2
    48     8     6   ar
    49    26    25    1
    50    30    31    1
    51    76    77    1
    52    76    73    1
    53    31    32    2
    54    16    14   ar
    55    15    14   ar
    56    75    74    2
    57    67    68    1
    58    28    25    1
    59    23    20    1
    60     6     5    1
    61     6     7   ar
    62    74    73    1
    63    14    13    1
    64    25    24    1
    65    73    72    1
    66     5     2    1
    67    20    19    1
    68    20    21    1
    69    19    11   am
    70    13    10    1
    71     9    10    1
    72     9     3   am
    73     2     3    1
    74     2     1    1
    75    21    22    2
    76    11    10    1
    77    11    12    2
    78     3     4    2
