@<TRIPOS>MOLECULE
tmp/2betB01.pdb
 74 70 0 0 0
SMALL
GASTEIGER

@<TRIPOS>ATOM
      1  N          3.9960    8.5530   14.1850 N.3     9  ASP9       -0.1225
      2  CA         3.1160    9.2960   13.2870 C.3     9  ASP9        0.1805
      3  C          1.7400    8.6170   13.2580 C.2     9  ASP9        0.2598
      4  O          1.4610    7.7440   14.0800 O.2     9  ASP9       -0.2718
      5  CB         3.7440    9.4510   11.8900 C.3     9  ASP9        0.1424
      6  CG         3.7970    8.1500   11.0970 C.2     9  ASP9        0.3668
      7  OD1        3.4400    7.0730   11.6200 O.co2   9  ASP9       -0.2456
      8  OD2        4.2070    8.1230    9.9200 O.co2   9  ASP9       -0.2456
      9  N          0.8870    9.0370   12.3280 N.am   10  HIS10      -0.1961
     10  CA        -0.4640    8.4830   12.1650 C.3    10  HIS10       0.1787
     11  C         -0.5040    6.9670   11.9550 C.2    10  HIS10       0.2620
     12  O         -1.3960    6.2920   12.4700 O.2    10  HIS10      -0.2715
     13  CB        -1.1660    9.1630   10.9840 C.3    10  HIS10       0.0785
     14  CG        -0.3890    9.0990    9.7060 C.ar   10  HIS10       0.0821
     15  ND1        0.5080   10.0760    9.3320 N.ar   10  HIS10      -0.2267
     16  CD2       -0.3580    8.1640    8.7270 C.ar   10  HIS10       0.1154
     17  CE1        1.0540    9.7490    8.1740 C.ar   10  HIS10       0.1986
     18  NE2        0.5450    8.5940    7.7850 N.ar   10  HIS10      -0.2212
     19  N          0.4520    6.4460   11.1890 N.am   11  ALA11      -0.1977
     20  CA         0.4970    5.0240   10.8450 C.3    11  ALA11       0.1597
     21  C          0.8070    4.1270   12.0440 C.2    11  ALA11       0.2287
     22  O          0.4220    2.9540   12.0610 O.2    11  ALA11      -0.2864
     23  CB         1.5180    4.7870    9.7390 C.3    11  ALA11       0.0319
     24  N         -3.8650   12.2490    9.8180 N.3    40  ALA40      -0.1245
     25  CA        -3.5000   11.4200    8.6620 C.3    40  ALA40       0.1562
     26  C         -2.3090   11.9230    7.8430 C.2    40  ALA40       0.2260
     27  O         -1.6540   11.1350    7.1600 O.2    40  ALA40      -0.2867
     28  CB        -4.7120   11.2550    7.7480 C.3    40  ALA40       0.0290
     29  N          6.5770   11.9270   10.3790 N.3    44  TYR44      -0.1241
     30  CA         7.2060   11.1060   11.4170 C.3    44  TYR44       0.1605
     31  C          8.5020   11.6510   12.0420 C.2    44  TYR44       0.2264
     32  O          8.6960   11.4630   13.2380 O.2    44  TYR44      -0.2867
     33  CB         7.4320    9.6590   10.9240 C.3    44  TYR44       0.0534
     34  CG         8.3630    9.5110    9.7330 C.ar   44  TYR44      -0.0201
     35  CD1        9.7460    9.5060    9.8950 C.ar   44  TYR44      -0.0009
     36  CD2        7.8550    9.3670    8.4440 C.ar   44  TYR44      -0.0009
     37  CE1       10.5960    9.3770    8.8040 C.ar   44  TYR44       0.0417
     38  CE2        8.6960    9.2330    7.3480 C.ar   44  TYR44       0.0417
     39  CZ        10.0640    9.2380    7.5330 C.ar   44  TYR44       0.1957
     40  OH        10.8990    9.1070    6.4450 O.3    44  TYR44      -0.2866
     41  N          4.4880    2.9330    9.8690 N.3    68  GLY68      -0.1210
     42  CA         3.8360    1.8930    9.0900 C.3    68  GLY68       0.1956
     43  C          4.7070    0.6560    9.0420 C.2    68  GLY68       0.2612
     44  O          4.2850   -0.4360    9.4240 O.2    68  GLY68      -0.2717
     45  N          5.9340    0.8400    8.5650 N.am   69  SER69      -0.1952
     46  CA         6.9390   -0.2190    8.5370 C.3    69  SER69       0.1924
     47  C          7.9320   -0.0850    9.6930 C.2    69  SER69       0.2314
     48  O          8.5850   -1.0600   10.0700 O.2    69  SER69      -0.2863
     49  CB         7.7010   -0.1790    7.2150 C.3    69  SER69       0.2116
     50  OG         8.4120    1.0400    7.0840 O.3    69  SER69      -0.2180
     51  N         11.3520    4.3010    8.1900 N.3    72  GLY72      -0.1210
     52  CA        11.5930    5.7340    8.1700 C.3    72  GLY72       0.1956
     53  C         11.8450    6.2620    9.5750 C.2    72  GLY72       0.2611
     54  O         12.6090    7.2040    9.7710 O.2    72  GLY72      -0.2717
     55  N         11.2200    5.6150   10.5560 N.am   73  GLU73      -0.1979
     56  CA        11.2540    6.0580   11.9430 C.3    73  GLU73       0.1602
     57  C         12.5910    5.7450   12.6070 C.2    73  GLU73       0.2287
     58  O         13.1110    6.5680   13.3540 O.2    73  GLU73      -0.2864
     59  CB        10.1090    5.4140   12.7330 C.3    73  GLU73       0.0415
     60  CG         8.7330    5.9870   12.4170 C.3    73  GLU73       0.1163
     61  CD         8.2040    5.5990   11.0460 C.2    73  GLU73       0.3649
     62  OE1        8.4340    4.4550   10.5990 O.co2  73  GLU73      -0.2457
     63  OE2        7.5370    6.4430   10.4140 O.co2  73  GLU73      -0.2457
     64  N          1.6480   -1.6740   10.7580 N.3   111  ARG111     -0.1245
     65  CA         0.9890   -2.3710    9.6500 C.3   111  ARG111      0.1563
     66  C          1.5730   -3.7630    9.3780 C.2   111  ARG111      0.2260
     67  O          1.0690   -4.4860    8.5210 O.2   111  ARG111     -0.2867
     68  CB         1.0730   -1.5230    8.3750 C.3   111  ARG111      0.0307
     69  CG         0.3200   -0.2040    8.4600 C.3   111  ARG111      0.0489
     70  CD         0.7010    0.8030    7.3810 C.3   111  ARG111      0.2205
     71  NE        -0.1480    1.9930    7.4320 N.pl3 111  ARG111     -0.0865
     72  CZ         0.0800    3.1290    6.7740 C.cat 111  ARG111      0.5346
     73  NH1        1.1420    3.2660    5.9860 N.pl3 111  ARG111      0.1354
     74  NH2       -0.7700    4.1410    6.9040 N.pl3 111  ARG111      0.1354
@<TRIPOS>BOND
     1    73    72    1
     2    40    39    1
     3    72    74    1
     4    72    71    2
     5    50    49    1
     6    27    26    2
     7    49    46    1
     8    38    39   ar
     9    38    36   ar
    10    70    71    1
    11    70    69    1
    12    39    37   ar
    13    28    25    1
    14    18    17   ar
    15    18    16   ar
    16    26    25    1
    17    52    51    1
    18    52    53    1
    19    17    15   ar
    20    68    69    1
    21    68    65    1
    22    36    34   ar
    23    67    66    2
    24    46    45    1
    25    46    47    1
    26    45    43   am
    27    25    24    1
    28    16    14   ar
    29    37    35   ar
    30    43    42    1
    31    43    44    2
    32    42    41    1
    33    15    14   ar
    34    66    65    1
    35    53    54    2
    36    53    55   am
    37    65    64    1
    38    47    48    2
    39    14    13    1
    40    34    35   ar
    41    34    33    1
    42    23    20    1
    43     8     6   ar
    44    29    30    1
    45    63    61   ar
    46    55    56    1
    47    62    61   ar
    48    20    19    1
    49    20    21    1
    50    33    30    1
    51    13    10    1
    52    61    60    1
    53     6     7   ar
    54     6     5    1
    55    19    11   am
    56    30    31    1
    57     5     2    1
    58    56    57    1
    59    56    59    1
    60    11    10    1
    61    11    12    2
    62    31    32    2
    63    21    22    2
    64    10     9    1
    65     9     3   am
    66    60    59    1
    67    57    58    2
    68     3     2    1
    69     3     4    2
    70     2     1    1
