@<TRIPOS>MOLECULE
tmp/2bewA00.pdb
 186 179 0 0 0
SMALL
GASTEIGER

@<TRIPOS>ATOM
      1  N         82.4420   10.0590   -3.3660 N.3    80  PHE80      -0.1241
      2  CA        81.2730    9.3530   -2.8080 C.3    80  PHE80       0.1605
      3  C         80.0950   10.3050   -2.8880 C.2    80  PHE80       0.2264
      4  O         80.2850   11.4890   -2.9190 O.2    80  PHE80      -0.2867
      5  CB        81.5740    9.0970   -1.3140 C.3    80  PHE80       0.0534
      6  CG        80.4430    8.5040   -0.5660 C.ar   80  PHE80      -0.0203
      7  CD1       80.1550    7.1660   -0.6980 C.ar   80  PHE80      -0.0042
      8  CD2       79.6650    9.2950    0.2460 C.ar   80  PHE80      -0.0042
      9  CE1       79.1090    6.6240    0.0200 C.ar   80  PHE80      -0.0003
     10  CE2       78.6160    8.7870    0.9100 C.ar   80  PHE80      -0.0003
     11  CZ        78.3560    7.4080    0.8120 C.ar   80  PHE80      -0.0000
     12  N         75.4920   10.4500   -1.7900 N.3    82  MET82      -0.1245
     13  CA        74.2480    9.8120   -1.3780 C.3    82  MET82       0.1570
     14  C         73.1490   10.7300   -1.7770 C.2    82  MET82       0.2261
     15  O         73.1830   11.9050   -1.4080 O.2    82  MET82      -0.2867
     16  CB        74.2030    9.6670    0.1310 C.3    82  MET82       0.0387
     17  CG        75.1920    8.6290    0.6140 C.3    82  MET82       0.0595
     18  SD        75.1190    8.6230    2.4280 S.3    82  MET82      -0.1393
     19  CE        74.7980    6.8740    2.7020 C.3    82  MET82       0.0692
     20  N         71.5730   12.4320   10.1520 N.3   107  GLN107     -0.1231
     21  CA        72.1560   11.1340    9.8680 C.3   107  GLN107      0.1698
     22  C         73.0500   11.2290    8.6690 C.2   107  GLN107      0.2592
     23  O         74.2140   10.8410    8.7710 O.2   107  GLN107     -0.2718
     24  CB        71.0560   10.0710    9.6820 C.3   107  GLN107      0.0381
     25  CG        71.5690    8.7310    9.1230 C.3   107  GLN107      0.0905
     26  CD        70.6550    7.5780    9.4920 C.2   107  GLN107      0.2608
     27  OE1       70.1900    7.4820   10.6040 O.2   107  GLN107     -0.2717
     28  NE2       70.3880    6.7330    8.5470 N.am  107  GLN107     -0.0878
     29  N         72.4980   11.6980    7.5390 N.am  108  TYR108     -0.1962
     30  CA        73.2140   11.9180    6.2520 C.3   108  TYR108      0.1771
     31  C         72.2480   12.0780    5.0970 C.2   108  TYR108      0.2619
     32  O         72.6390   12.5360    4.0070 O.2   108  TYR108     -0.2715
     33  CB        74.2900   10.8600    5.8830 C.3   108  TYR108      0.0574
     34  CG        73.7550    9.4350    5.8500 C.ar  108  TYR108     -0.0198
     35  CD1       72.7100    9.0950    5.0040 C.ar  108  TYR108     -0.0009
     36  CD2       74.2140    8.5030    6.7320 C.ar  108  TYR108     -0.0009
     37  CE1       72.1590    7.7620    4.9990 C.ar  108  TYR108      0.0417
     38  CE2       73.7000    7.2270    6.7380 C.ar  108  TYR108      0.0417
     39  CZ        72.6800    6.8780    5.8770 C.ar  108  TYR108      0.1957
     40  OH        72.1930    5.6060    5.9170 O.3   108  TYR108     -0.2866
     41  N         70.9730   11.7750    5.3210 N.am  109  ARG109     -0.1977
     42  CA        70.0390   11.8680    4.2340 C.3   109  ARG109      0.1597
     43  C         68.9780   12.8950    4.5330 C.2   109  ARG109      0.2287
     44  O         67.7970   12.6050    4.3910 O.2   109  ARG109     -0.2864
     45  CB        69.4470   10.4510    3.8890 C.3   109  ARG109      0.0334
     46  CG        69.2070   10.2770    2.3720 C.3   109  ARG109      0.0492
     47  CD        68.4750    8.9980    1.9560 C.3   109  ARG109      0.2205
     48  NE        69.2400    7.8040    2.3490 N.pl3 109  ARG109     -0.0865
     49  CZ        70.1710    7.2220    1.5780 C.cat 109  ARG109      0.5346
     50  NH1       70.4870    7.7190    0.3830 N.pl3 109  ARG109      0.1354
     51  NH2       70.8270    6.1440    1.9900 N.pl3 109  ARG109      0.1354
     52  N         84.3130   12.4560    4.6320 N.3   141  MET141     -0.1245
     53  CA        83.7000   12.0180    3.3770 C.3   141  MET141      0.1570
     54  C         82.6550   13.0080    2.8870 C.2   141  MET141      0.2261
     55  O         82.1140   13.7610    3.6920 O.2   141  MET141     -0.2867
     56  CB        83.0620   10.6220    3.5760 C.3   141  MET141      0.0387
     57  CG        84.1110    9.5240    3.4430 C.3   141  MET141      0.0595
     58  SD        83.4930    7.8050    3.4980 S.3   141  MET141     -0.1393
     59  CE        81.8420    8.0710    2.8290 C.3   141  MET141      0.0692
     60  N         78.8970   14.8860    4.4460 N.3   144  HIS144     -0.1241
     61  CA        78.9820   15.0230    5.8860 C.3   144  HIS144      0.1621
     62  C         79.0010   16.4990    6.2500 C.2   144  HIS144      0.2264
     63  O         79.9870   17.0430    6.7370 O.2   144  HIS144     -0.2867
     64  CB        80.2290   14.3110    6.4150 C.3   144  HIS144      0.0745
     65  CG        80.1090   12.8090    6.3790 C.ar  144  HIS144      0.0817
     66  ND1       79.7560   12.1070    5.2380 N.ar  144  HIS144     -0.2268
     67  CD2       80.2320   11.8800    7.3550 C.ar  144  HIS144      0.1154
     68  CE1       79.7070   10.8190    5.5140 C.ar  144  HIS144      0.1986
     69  NE2       80.0050   10.6590    6.7890 N.ar  144  HIS144     -0.2212
     70  N         79.4740    9.4810   10.2890 N.3   157  SER157     -0.1203
     71  CA        79.0200    8.2160    9.7220 C.3   157  SER157      0.2005
     72  C         78.4440    7.2140   10.7470 C.2   157  SER157      0.2461
     73  O         77.5360    6.4610   10.3700 O.2   157  SER157     -0.2732
     74  CB        80.1250    7.4770    8.8790 C.3   157  SER157      0.2103
     75  OG        80.9250    8.5200    8.1820 O.3   157  SER157     -0.2182
     76  N         78.9780    7.1030   11.9600 N.am  158  PRO158     -0.2717
     77  CA        78.4380    6.1140   12.8960 C.3   158  PRO158      0.1535
     78  C         76.9660    6.3240   13.1620 C.2   158  PRO158      0.2598
     79  O         76.5590    7.4030   13.6270 O.2   158  PRO158     -0.2715
     80  CB        79.2430    6.3390   14.1600 C.3   158  PRO158      0.0310
     81  CG        80.5870    6.8440   13.6110 C.3   158  PRO158      0.0237
     82  CD        80.1400    7.8250   12.5410 C.3   158  PRO158      0.0939
     83  N         76.1420    5.3010   12.9030 N.am  159  LEU159     -0.1978
     84  CA        74.7260    5.4960   12.9720 C.3   159  LEU159      0.1596
     85  C         74.2460    5.6300   14.4320 C.2   159  LEU159      0.2287
     86  O         74.6860    4.8690   15.3250 O.2   159  LEU159     -0.2864
     87  CB        74.0030    4.2790   12.3330 C.3   159  LEU159      0.0297
     88  CG        74.1720    4.2540   10.8100 C.3   159  LEU159      0.0022
     89  CD1       73.7630    2.8420   10.3320 C.3   159  LEU159      0.0001
     90  CD2       73.3460    5.2370   10.0260 C.3   159  LEU159      0.0001
     91  N         67.2860    7.1170   10.4540 N.3   187  GLY187     -0.1210
     92  CA        66.4900    6.1800    9.6450 C.3   187  GLY187      0.1956
     93  C         66.0190    4.9990   10.4640 C.2   187  GLY187      0.2612
     94  O         66.3950    4.8070   11.6420 O.2   187  GLY187     -0.2717
     95  N         65.2450    4.1130    9.8270 N.am  188  GLU188     -0.1965
     96  CA        64.7180    3.0060   10.5910 C.3   188  GLU188      0.1733
     97  C         65.7260    1.9220   10.9340 C.2   188  GLU188      0.2617
     98  O         65.5230    1.1900   11.9250 O.2   188  GLU188     -0.2715
     99  CB        63.4410    2.4340    9.9010 C.3   188  GLU188      0.0429
    100  CG        63.6310    1.3590    8.7790 C.3   188  GLU188      0.1163
    101  CD        64.4650    1.8060    7.5810 C.2   188  GLU188      0.3649
    102  OE1       64.5410    2.9900    7.2080 O.co2 188  GLU188     -0.2457
    103  OE2       65.1330    0.9410    6.9910 O.co2 188  GLU188     -0.2457
    104  N         66.7550    1.7590   10.1080 N.am  189  GLY189     -0.1940
    105  CA        67.8270    0.8720   10.4330 C.3   189  GLY189      0.2014
    106  C         68.5900    1.4290   11.6140 C.2   189  GLY189      0.2638
    107  O         68.8520    0.7020   12.6080 O.2   189  GLY189     -0.2714
    108  N         68.9690    2.7020   11.5670 N.am  190  ALA190     -0.1977
    109  CA        69.6860    3.3120   12.7360 C.3   190  ALA190      0.1597
    110  C         68.9230    3.1350   14.0650 C.2   190  ALA190      0.2287
    111  O         69.5470    3.0650   15.1120 O.2   190  ALA190     -0.2864
    112  CB        69.9440    4.8100   12.4910 C.3   190  ALA190      0.0319
    113  N         69.9230    0.5960   16.6880 N.3   193  GLU193     -0.1245
    114  CA        71.1270    0.6730   17.5220 C.3   193  GLU193      0.1567
    115  C         70.8300    0.8900   18.9860 C.2   193  GLU193      0.2260
    116  O         69.8760    1.5210   19.2880 O.2   193  GLU193     -0.2867
    117  CB        72.0200    1.8500   17.0580 C.3   193  GLU193      0.0388
    118  CG        72.6780    1.5420   15.6740 C.3   193  GLU193      0.1160
    119  CD        73.8260    0.5990   15.6950 C.2   193  GLU193      0.3649
    120  OE1       74.0730   -0.0190   16.6970 O.co2 193  GLU193     -0.2457
    121  OE2       74.5300    0.5540   14.6580 O.co2 193  GLU193     -0.2457
    122  N         62.9450    8.7270    9.5750 N.3   215  ARG215     -0.1245
    123  CA        62.6140    8.4820    8.1800 C.3   215  ARG215      0.1563
    124  C         62.5560    6.9920    7.9790 C.2   215  ARG215      0.2260
    125  O         63.6050    6.3400    7.9580 O.2   215  ARG215     -0.2867
    126  CB        63.7240    9.0370    7.2630 C.3   215  ARG215      0.0307
    127  CG        63.9730   10.5660    7.2170 C.3   215  ARG215      0.0489
    128  CD        65.0670   10.8950    6.1590 C.3   215  ARG215      0.2205
    129  NE        66.3630   10.4300    6.6440 N.pl3 215  ARG215     -0.0865
    130  CZ        66.9870    9.2940    6.2520 C.cat 215  ARG215      0.5346
    131  NH1       66.4550    8.5020    5.3140 N.pl3 215  ARG215      0.1354
    132  NH2       68.1670    8.9740    6.7880 N.pl3 215  ARG215      0.1354
    133  N         62.1020    4.3740    5.3630 N.3   217  ASN217     -0.1240
    134  CA        62.1090    4.3580    3.9000 C.3   217  ASN217      0.1653
    135  C         62.1820    2.9520    3.3790 C.2   217  ASN217      0.2266
    136  O         62.3980    2.7460    2.1850 O.2   217  ASN217     -0.2867
    137  CB        63.2620    5.2800    3.3810 C.3   217  ASN217      0.1155
    138  CG        64.6150    4.7280    3.6720 C.2   217  ASN217      0.2627
    139  OD1       64.7300    3.6780    4.3520 O.2   217  ASN217     -0.2716
    140  ND2       65.6520    5.4300    3.2290 N.am  217  ASN217     -0.0877
    141  N         64.0660    0.2890    3.8220 N.3   219  TYR219     -0.1227
    142  CA        65.3610   -0.4100    3.6340 C.3   219  TYR219      0.1736
    143  C         66.4510    0.2480    4.3700 C.2   219  TYR219      0.2595
    144  O         66.5200    1.4820    4.4320 O.2   219  TYR219     -0.2718
    145  CB        65.7930   -0.3160    2.1800 C.3   219  TYR219      0.0548
    146  CG        64.9640   -1.1630    1.3200 C.ar  219  TYR219     -0.0200
    147  CD1       65.2070   -2.5330    1.2190 C.ar  219  TYR219     -0.0009
    148  CD2       63.9290   -0.6040    0.6020 C.ar  219  TYR219     -0.0009
    149  CE1       64.4010   -3.3390    0.4450 C.ar  219  TYR219      0.0417
    150  CE2       63.1180   -1.3720   -0.1610 C.ar  219  TYR219      0.0417
    151  CZ        63.3580   -2.7370   -0.2520 C.ar  219  TYR219      0.1957
    152  OH        62.5370   -3.4740   -1.0700 O.3   219  TYR219     -0.2866
    153  N         67.4140   -0.5750    4.8320 N.am  220  ALA220     -0.1966
    154  CA        68.6320   -0.0750    5.3970 C.3   220  ALA220      0.1728
    155  C         69.6680   -0.7940    4.5370 C.2   220  ALA220      0.2616
    156  O         69.9130   -1.9750    4.7320 O.2   220  ALA220     -0.2715
    157  CB        68.7390   -0.4760    6.9140 C.3   220  ALA220      0.0334
    158  N         70.2680   -0.0800    3.5910 N.am  221  ILE221     -0.1977
    159  CA        71.0260   -0.7480    2.5110 C.3   221  ILE221      0.1596
    160  C         70.2130   -1.8380    1.8620 C.2   221  ILE221      0.2287
    161  O         69.2200   -1.5220    1.1970 O.2   221  ILE221     -0.2864
    162  CB        72.4860   -1.2150    2.9450 C.3   221  ILE221      0.0276
    163  CG1       73.1900   -0.0780    3.7110 C.3   221  ILE221      0.0022
    164  CG2       73.2620   -1.5030    1.6670 C.3   221  ILE221      0.0022
    165  CD1       74.6520   -0.3470    4.0530 C.3   221  ILE221      0.0001
    166  N         62.8170    4.8410   -0.1820 N.3   282  ARG282     -0.1245
    167  CA        64.1160    5.2790   -0.7070 C.3   282  ARG282      0.1563
    168  C         64.1290    5.0030   -2.1950 C.2   282  ARG282      0.2260
    169  O         64.2180    3.8360   -2.6160 O.2   282  ARG282     -0.2867
    170  CB        65.2500    4.5100   -0.0150 C.3   282  ARG282      0.0307
    171  CG        66.6340    5.1840   -0.0680 C.3   282  ARG282      0.0489
    172  CD        67.7070    4.1620    0.2390 C.3   282  ARG282      0.2205
    173  NE        67.7490    3.1980   -0.8540 N.pl3 282  ARG282     -0.0865
    174  CZ        68.1320    1.9120   -0.7720 C.cat 282  ARG282      0.5346
    175  NH1       68.5270    1.3590    0.3770 N.pl3 282  ARG282      0.1354
    176  NH2       68.1250    1.1720   -1.8810 N.pl3 282  ARG282      0.1354
    177  N         71.3000    3.1940   -2.1410 N.3   286  HIS286     -0.1241
    178  CA        71.6510    3.6370   -0.8000 C.3   286  HIS286      0.1621
    179  C         72.7410    4.7430   -0.8970 C.2   286  HIS286      0.2264
    180  O         72.7260    5.7810   -0.1470 O.2   286  HIS286     -0.2867
    181  CB        72.1430    2.4260    0.0180 C.3   286  HIS286      0.0745
    182  CG        72.7720    2.8370    1.3100 C.ar  286  HIS286      0.0817
    183  ND1       74.1330    2.8180    1.5260 N.ar  286  HIS286     -0.2268
    184  CD2       72.2210    3.3740    2.4190 C.ar  286  HIS286      0.1154
    185  CE1       74.3910    3.3150    2.7240 C.ar  286  HIS286      0.1986
    186  NE2       73.2460    3.6220    3.2960 N.ar  286  HIS286     -0.2212
@<TRIPOS>BOND
     1     1     2    1
     2     4     3    2
     3     3     2    1
     4     2     5    1
     5   169   168    2
     6   168   167    1
     7   177   178    1
     8   176   174    1
     9    12    13    1
    10    14    15    2
    11    14    13    1
    12    13    16    1
    13     5     6    1
    14   152   151    1
    15   179   178    1
    16   179   180    2
    17   173   174    2
    18   173   172    1
    19   178   181    1
    20   174   175    1
    21   167   166    1
    22   167   170    1
    23     7     6   ar
    24     7     9   ar
    25     6     8   ar
    26   151   150   ar
    27   151   149   ar
    28   150   148   ar
    29   171   170    1
    30   171   172    1
    31   181   182    1
    32     9    11   ar
    33    16    17    1
    34     8    10   ar
    35    50    49    1
    36   149   147   ar
    37   148   146   ar
    38    17    18    1
    39    11    10   ar
    40   161   160    2
    41   147   146   ar
    42   182   183   ar
    43   182   184   ar
    44   146   145    1
    45   183   185   ar
    46    49    51    1
    47    49    48    2
    48   164   162    1
    49   160   159    1
    50    47    48    1
    51    47    46    1
    52   145   142    1
    53   136   135    2
    54    46    45    1
    55   184   186   ar
    56    18    19    1
    57   159   162    1
    58   159   158    1
    59   185   186   ar
    60    59    58    1
    61    54    53    1
    62    54    55    2
    63   162   163    1
    64   140   138   am
    65    53    56    1
    66    53    52    1
    67   135   134    1
    68   137   138    1
    69   137   134    1
    70    57    58    1
    71    57    56    1
    72   158   155   am
    73   142   141    1
    74   142   143    1
    75   138   139    2
    76   163   165    1
    77    45    42    1
    78   134   133    1
    79    32    31    2
    80    42    43    1
    81    42    41    1
    82   143   144    2
    83   143   153   am
    84    44    43    2
    85    60    61    1
    86   155   156    2
    87   155   154    1
    88   153   154    1
    89    37    35   ar
    90    37    39   ar
    91    35    34   ar
    92    31    41   am
    93    31    30    1
    94    66    68   ar
    95    66    65   ar
    96   131   130    1
    97   154   157    1
    98    68    69   ar
    99    34    33    1
   100    34    36   ar
   101    39    40    1
   102    39    38   ar
   103    33    30    1
   104    61    62    1
   105    61    64    1
   106   128   129    1
   107   128   127    1
   108    62    63    2
   109    30    29    1
   110   130   129    2
   111   130   132    1
   112    65    64    1
   113    65    67   ar
   114    36    38   ar
   115    69    67   ar
   116   103   101   ar
   117   102   101   ar
   118   127   126    1
   119   126   123    1
   120    29    22   am
   121   101   100    1
   122   125   124    2
   123   124   123    1
   124   123   122    1
   125    75    74    1
   126    28    26   am
   127    22    23    2
   128    22    21    1
   129   100    99    1
   130    74    71    1
   131    25    26    1
   132    25    24    1
   133    26    27    2
   134    92    91    1
   135    92    93    1
   136    24    21    1
   137    71    70    1
   138    71    72    1
   139    95    93   am
   140    95    96    1
   141    21    20    1
   142    99    96    1
   143    90    88    1
   144   104   105    1
   145   104    97   am
   146    89    88    1
   147    73    72    2
   148   105   106    1
   149    93    94    2
   150    96    97    1
   151    72    76   am
   152    88    87    1
   153    97    98    2
   154   108   106   am
   155   108   109    1
   156   106   107    2
   157    76    82    1
   158    76    77    1
   159    87    84    1
   160   112   109    1
   161    82    81    1
   162   109   110    1
   163    77    78    1
   164    77    80    1
   165    83    84    1
   166    83    78   am
   167    84    85    1
   168    78    79    2
   169    81    80    1
   170   110   111    2
   171    85    86    2
   172   121   119   ar
   173   118   119    1
   174   118   117    1
   175   119   120   ar
   176   113   114    1
   177   117   114    1
   178   114   115    1
   179   115   116    2
