@<TRIPOS>MOLECULE
tmp/2bf1A08.pdb
 98 93 0 0 0
SMALL
GASTEIGER

@<TRIPOS>ATOM
      1  N        -17.4320   12.3280   -1.2940 N.3   181  ASN181     -0.1225
      2  CA       -16.3750   12.7270   -2.2210 C.3   181  ASN181      0.1785
      3  C        -16.0390   14.2390   -2.0210 C.2   181  ASN181      0.2597
      4  O        -16.7640   14.9720   -1.3110 O.2   181  ASN181     -0.2718
      5  CB       -16.7520   12.3750   -3.6820 C.3   181  ASN181      0.1169
      6  CG       -16.7010   10.8600   -3.9660 C.2   181  ASN181      0.2627
      7  OD1      -15.6320   10.2540   -3.8940 O.2   181  ASN181     -0.2716
      8  ND2      -17.8680   10.2450   -4.2500 N.am  181  ASN181     -0.0877
      9  N        -14.9250   14.6730   -2.6250 N.am  182  LEU182     -0.1966
     10  CA       -14.3520   16.0390   -2.4710 C.3   182  LEU182      0.1728
     11  C        -14.2200   16.7980   -3.8160 C.2   182  LEU182      0.2617
     12  O        -14.1810   16.1860   -4.8950 O.2   182  LEU182     -0.2715
     13  CB       -12.9890   15.9740   -1.7240 C.3   182  LEU182      0.0311
     14  CG       -11.7930   16.8770   -2.0750 C.3   182  LEU182      0.0022
     15  CD1      -11.6290   18.0570   -1.1180 C.3   182  LEU182      0.0001
     16  CD2      -10.5440   16.0290   -2.0950 C.3   182  LEU182      0.0001
     17  N        -14.1770   18.1300   -3.7360 N.am  183  THR183     -0.1937
     18  CA       -13.9580   18.9840   -4.9020 C.3   183  THR183      0.2028
     19  C        -13.3930   20.3290   -4.4450 C.2   183  THR183      0.2642
     20  O        -12.1790   20.4480   -4.2610 O.2   183  THR183     -0.2714
     21  CB       -15.2630   19.1690   -5.7140 C.3   183  THR183      0.1808
     22  OG1      -15.9680   17.9220   -5.8100 O.3   183  THR183     -0.2208
     23  CG2      -14.9580   19.5140   -7.1640 C.3   183  THR183      0.0379
     24  N        -14.2700   21.3240   -4.2640 N.am  184  ALA184     -0.1963
     25  CA       -13.9210   22.6580   -3.7350 C.3   184  ALA184      0.1713
     26  C        -13.7440   23.7420   -4.7980 C.2   184  ALA184      0.2458
     27  O        -12.9820   24.6810   -4.5770 O.2   184  ALA184     -0.2730
     28  CB       -12.6760   22.5920   -2.8320 C.3   184  ALA184      0.0333
     29  N        -14.4420   23.6440   -5.9290 N.am  185  PRO185     -0.2716
     30  CA       -14.2130   24.5570   -7.0340 C.3   185  PRO185      0.1536
     31  C        -14.9710   25.8650   -6.8430 C.2   185  PRO185      0.2598
     32  O        -14.6920   26.5860   -5.8970 O.2   185  PRO185     -0.2715
     33  CB       -14.7390   23.7730   -8.2380 C.3   185  PRO185      0.0310
     34  CG       -15.7910   22.8700   -7.6900 C.3   185  PRO185      0.0237
     35  CD       -15.5190   22.6890   -6.2350 C.3   185  PRO185      0.0939
     36  N        -15.8930   26.1700   -7.7530 N.am  186  ARG186     -0.1978
     37  CA       -16.8040   27.3140   -7.6450 C.3   186  ARG186      0.1597
     38  C        -16.9940   28.0650   -8.9720 C.2   186  ARG186      0.2287
     39  O        -16.1080   28.8160   -9.4050 O.2   186  ARG186     -0.2864
     40  CB       -16.3650   28.2920   -6.5450 C.3   186  ARG186      0.0334
     41  CG       -17.4620   28.6090   -5.5250 C.3   186  ARG186      0.0492
     42  CD       -18.5430   29.5960   -6.0020 C.3   186  ARG186      0.2205
     43  NE       -19.3170   29.1030   -7.1500 N.pl3 186  ARG186     -0.0865
     44  CZ       -20.2280   29.8130   -7.8250 C.cat 186  ARG186      0.5346
     45  NH1      -20.5140   31.0630   -7.4710 N.pl3 186  ARG186      0.1354
     46  NH2      -20.8680   29.2680   -8.8560 N.pl3 186  ARG186      0.1354
     47  N        -16.7440   27.2230  -11.8600 N.3   188  GLY188     -0.1210
     48  CA       -15.9400   26.5890  -12.9190 C.3   188  GLY188      0.1956
     49  C        -15.2690   25.2810  -12.5130 C.2   188  GLY188      0.2611
     50  O        -15.2090   24.9410  -11.3280 O.2   188  GLY188     -0.2717
     51  N        -14.7720   24.5400  -13.5070 N.am  189  ASP189     -0.1973
     52  CA       -14.1320   23.2370  -13.2620 C.3   189  ASP189      0.1709
     53  C        -12.5940   23.2220  -13.3990 C.2   189  ASP189      0.2293
     54  O        -12.0530   23.4610  -14.4810 O.2   189  ASP189     -0.2864
     55  CB       -14.8160   22.0560  -14.0350 C.3   189  ASP189      0.1436
     56  CG       -15.0180   22.3080  -15.5670 C.2   189  ASP189      0.3671
     57  OD1      -15.1630   23.4710  -16.0050 O.co2 189  ASP189     -0.2456
     58  OD2      -15.0930   21.3680  -16.4050 O.co2 189  ASP189     -0.2456
     59  N        -19.6930   20.6090    2.2590 N.3   275  ASP275     -0.1239
     60  CA       -20.8780   21.0930    1.5450 C.3   275  ASP275      0.1674
     61  C        -21.9520   20.0020    1.4620 C.2   275  ASP275      0.2266
     62  O        -21.7090   18.9270    0.9120 O.2   275  ASP275     -0.2867
     63  CB       -20.5070   21.5980    0.1470 C.3   275  ASP275      0.1410
     64  CG       -19.5520   22.7720    0.1830 C.2   275  ASP275      0.3668
     65  OD1      -20.0200   23.9310    0.2490 O.co2 275  ASP275     -0.2456
     66  OD2      -18.3140   22.6310    0.1230 O.co2 275  ASP275     -0.2456
     67  N        -27.9690   15.7320   -3.6610 N.3   280  ASN280     -0.1225
     68  CA       -27.0700   14.5730   -3.5360 C.3   280  ASN280      0.1785
     69  C        -25.5730   14.9260   -3.3920 C.2   280  ASN280      0.2597
     70  O        -24.7990   14.6420   -4.3250 O.2   280  ASN280     -0.2718
     71  CB       -27.2200   13.6130   -4.7350 C.3   280  ASN280      0.1169
     72  CG       -28.6490   13.1670   -4.9740 C.2   280  ASN280      0.2627
     73  OD1      -29.5790   13.7520   -4.4360 O.2   280  ASN280     -0.2716
     74  ND2      -28.8380   12.1790   -5.8670 N.am  280  ASN280     -0.0877
     75  N        -25.1570   15.5200   -2.2530 N.am  281  GLN281     -0.1979
     76  CA       -23.7160   15.8840   -2.0190 C.3   281  GLN281      0.1601
     77  C        -23.2020   16.1680   -0.5790 C.2   281  GLN281      0.2287
     78  O        -23.7470   17.0180    0.1270 O.2   281  GLN281     -0.2864
     79  CB       -23.2630   17.0290   -2.9600 C.3   281  GLN281      0.0394
     80  CG       -24.3010   18.1280   -3.2680 C.3   281  GLN281      0.0908
     81  CD       -24.2630   18.5690   -4.7340 C.2   281  GLN281      0.2608
     82  OE1      -23.2040   18.9510   -5.2520 O.2   281  GLN281     -0.2717
     83  NE2      -25.4150   18.5070   -5.4020 N.am  281  GLN281     -0.0878
     84  N        -19.7670   17.4930    0.5350 N.3   283  ASN283     -0.1240
     85  CA       -18.6500   18.0670   -0.2140 C.3   283  ASN283      0.1653
     86  C        -17.5510   18.7040    0.6290 C.2   283  ASN283      0.2266
     87  O        -17.6070   19.9030    0.9340 O.2   283  ASN283     -0.2867
     88  CB       -19.2040   19.1210   -1.1640 C.3   283  ASN283      0.1155
     89  CG       -18.4050   19.2610   -2.4420 C.2   283  ASN283      0.2627
     90  OD1      -17.2300   18.8710   -2.5400 O.2   283  ASN283     -0.2716
     91  ND2      -19.0650   19.8380   -3.4410 N.am  283  ASN283     -0.0877
     92  N        -13.9740   20.3230    1.6140 N.3   285  THR285     -0.1218
     93  CA       -13.1990   21.3770    0.9630 C.3   285  THR285      0.1862
     94  C        -12.0190   21.7590    1.8780 C.2   285  THR285      0.2287
     95  O        -11.9800   21.3640    3.0420 O.2   285  THR285     -0.2866
     96  CB       -14.1450   22.5770    0.6630 C.3   285  THR285      0.1770
     97  OG1      -15.2320   22.1330   -0.1640 O.3   285  THR285     -0.2211
     98  CG2      -13.4720   23.6500   -0.1980 C.3   285  THR285      0.0375
@<TRIPOS>BOND
     1    58    56   ar
     2    57    56   ar
     3    56    55    1
     4    54    53    2
     5    55    52    1
     6    51    52    1
     7    51    49   am
     8    53    52    1
     9    48    49    1
    10    48    47    1
    11    49    50    2
    12    39    38    2
    13    38    37    1
    14    46    44    1
    15    33    34    1
    16    33    30    1
    17    44    45    1
    18    44    43    2
    19    36    37    1
    20    36    31   am
    21    34    35    1
    22    37    40    1
    23    23    21    1
    24    43    42    1
    25    30    31    1
    26    30    29    1
    27    31    32    2
    28    40    41    1
    29    35    29    1
    30    42    41    1
    31    29    26   am
    32    74    72   am
    33    22    21    1
    34    21    18    1
    35    83    81   am
    36    82    81    2
    37    72    71    1
    38    72    73    2
    39    18    19    1
    40    18    17    1
    41    12    11    2
    42    26    27    2
    43    26    25    1
    44    71    68    1
    45    81    80    1
    46    19    24   am
    47    19    20    2
    48    70    69    2
    49    24    25    1
    50     8     6   am
    51     6     7    2
    52     6     5    1
    53    11    17   am
    54    11    10    1
    55    25    28    1
    56     5     2    1
    57    67    68    1
    58    68    69    1
    59    91    89   am
    60    69    75   am
    61    80    79    1
    62    79    76    1
    63     9    10    1
    64     9     3   am
    65    90    89    2
    66    10    13    1
    67    89    88    1
    68    75    76    1
    69     2     3    1
    70     2     1    1
    71    16    14    1
    72    14    13    1
    73    14    15    1
    74     3     4    2
    75    76    77    1
    76    88    85    1
    77    77    78    2
    78    85    84    1
    79    85    86    1
    80    98    96    1
    81    97    96    1
    82    66    64   ar
    83    63    64    1
    84    63    60    1
    85    64    65   ar
    86    86    87    2
    87    96    93    1
    88    62    61    2
    89    93    92    1
    90    93    94    1
    91    61    60    1
    92    60    59    1
    93    94    95    2
