@<TRIPOS>MOLECULE
tmp/2bf1A06.pdb
 96 93 0 0 0
SMALL
GASTEIGER

@<TRIPOS>ATOM
      1  N          2.5090   13.5180   10.9910 N.3   139  THR139     -0.1218
      2  CA         3.6900   14.3550   10.8300 C.3   139  THR139      0.1862
      3  C          3.7480   14.9500    9.4410 C.2   139  THR139      0.2287
      4  O          3.2310   14.3640    8.4920 O.2   139  THR139     -0.2866
      5  CB         4.9340   13.5210   11.0170 C.3   139  THR139      0.1770
      6  OG1        4.7830   12.6950   12.1750 O.3   139  THR139     -0.2211
      7  CG2        6.1000   14.4260   11.3450 C.3   139  THR139      0.0375
      8  N          6.8820   17.0360    7.4650 N.3   141  LYS141     -0.1245
      9  CA         8.0720   17.8410    7.2700 C.3   141  LYS141      0.1561
     10  C          8.3330   18.1290    5.8100 C.2   141  LYS141      0.2260
     11  O          8.2290   17.2450    4.9670 O.2   141  LYS141     -0.2867
     12  CB         9.2990   17.1710    7.8690 C.3   141  LYS141      0.0271
     13  CG        10.5930   17.8270    7.4050 C.3   141  LYS141      0.0035
     14  CD        11.8260   16.9740    7.6300 C.3   141  LYS141      0.0206
     15  CE        12.9500   17.3440    6.6580 C.3   141  LYS141      0.1093
     16  NZ        13.9290   16.2100    6.5070 N.3   141  LYS141     -0.1314
     17  N          7.3800   15.5830    3.4320 N.3   149  TRP149     -0.1227
     18  CA         7.3670   14.2570    4.0280 C.3   149  TRP149      0.1737
     19  C          6.3820   14.1450    5.1820 C.2   149  TRP149      0.2595
     20  O          5.9340   15.1610    5.7220 O.2   149  TRP149     -0.2718
     21  CB         8.7480   13.9130    4.5530 C.3   149  TRP149      0.0564
     22  CG         9.8730   14.4100    3.7350 C.ar  149  TRP149      0.0003
     23  CD1       10.2730   15.7000    3.5870 C.ar  149  TRP149      0.0946
     24  CD2       10.7890   13.6160    2.9770 C.ar  149  TRP149      0.0152
     25  NE1       11.3740   15.7600    2.7700 N.ar  149  TRP149     -0.2442
     26  CE2       11.7100   14.4900    2.3820 C.ar  149  TRP149      0.0810
     27  CE3       10.9180   12.2390    2.7270 C.ar  149  TRP149      0.0012
     28  CZ2       12.7420   14.0370    1.5580 C.ar  149  TRP149      0.0191
     29  CZ3       11.9510   11.7920    1.9030 C.ar  149  TRP149      0.0001
     30  CH2       12.8510   12.6840    1.3500 C.ar  149  TRP149      0.0015
     31  N          6.0810   12.9000    5.5710 N.am  150  PHE150     -0.1962
     32  CA         5.0610   12.5950    6.5780 C.3   150  PHE150      0.1771
     33  C          5.4260   11.4030    7.4560 C.2   150  PHE150      0.2620
     34  O          6.4350   10.7240    7.2390 O.2   150  PHE150     -0.2715
     35  CB         3.7220   12.2510    5.9090 C.3   150  PHE150      0.0574
     36  CG         3.1200   13.3570    5.0910 C.ar  150  PHE150     -0.0200
     37  CD1        3.5500   13.6010    3.7840 C.ar  150  PHE150     -0.0042
     38  CD2        2.0800   14.1150    5.6040 C.ar  150  PHE150     -0.0042
     39  CE1        2.9790   14.6100    3.0190 C.ar  150  PHE150     -0.0003
     40  CE2        1.4950   15.1200    4.8470 C.ar  150  PHE150     -0.0003
     41  CZ         1.9440   15.3710    3.5490 C.ar  150  PHE150     -0.0000
     42  N          4.5460   11.1600    8.4250 N.am  151  GLY151     -0.1940
     43  CA         4.5340    9.9630    9.2600 C.3   151  GLY151      0.2014
     44  C          3.2110    9.9180   10.0170 C.2   151  GLY151      0.2639
     45  O          2.6940   10.9700   10.4260 O.2   151  GLY151     -0.2714
     46  N          2.6540    8.7100   10.1880 N.am  152  GLY152     -0.1954
     47  CA         1.3540    8.5170   10.8620 C.3   152  GLY152      0.1869
     48  C          0.4520    7.4890   10.1870 C.2   152  GLY152      0.2309
     49  O          0.8420    6.8620    9.1920 O.2   152  GLY152     -0.2863
     50  N          3.0260    5.1750   -3.0680 N.3   231  ARG231     -0.1231
     51  CA         3.7320    5.8150   -1.9530 C.3   231  ARG231      0.1694
     52  C          3.8260    7.3260   -2.1310 C.2   231  ARG231      0.2592
     53  O          3.3860    7.8540   -3.1580 O.2   231  ARG231     -0.2718
     54  CB         5.1080    5.1880   -1.7580 C.3   231  ARG231      0.0321
     55  CG         5.0450    3.6940   -1.5190 C.3   231  ARG231      0.0489
     56  CD         6.2670    3.1040   -0.8810 C.3   231  ARG231      0.2205
     57  NE         7.3610    2.8850   -1.8210 N.pl3 231  ARG231     -0.0865
     58  CZ         8.2550    3.8010   -2.1740 C.cat 231  ARG231      0.5346
     59  NH1        8.1990    5.0300   -1.6850 N.pl3 231  ARG231      0.1354
     60  NH2        9.2110    3.4850   -3.0310 N.pl3 231  ARG231      0.1354
     61  N          4.3870    8.0320   -1.1440 N.am  232  ASN232     -0.1974
     62  CA         4.1780    9.4820   -1.1040 C.3   232  ASN232      0.1688
     63  C          5.1770   10.4820   -0.5230 C.2   232  ASN232      0.2292
     64  O          5.7850   10.2850    0.5330 O.2   232  ASN232     -0.2864
     65  CB         2.8050    9.7750   -0.5320 C.3   232  ASN232      0.1181
     66  CG         1.7560    9.7660   -1.5840 C.2   232  ASN232      0.2629
     67  OD1        1.4930   10.7890   -2.2090 O.2   232  ASN232     -0.2716
     68  ND2        1.1470    8.6070   -1.8040 N.am  232  ASN232     -0.0877
     69  N         14.8630   23.4310    5.5370 N.3   262  THR262     -0.1218
     70  CA        14.2110   22.1760    5.2700 C.3   262  THR262      0.1862
     71  C         13.0600   22.0670    6.2400 C.2   262  THR262      0.2287
     72  O         13.1740   21.4560    7.3010 O.2   262  THR262     -0.2866
     73  CB        15.2200   21.0220    5.3940 C.3   262  THR262      0.1770
     74  OG1       16.4460   21.3840    4.7310 O.3   262  THR262     -0.2211
     75  CG2       14.7390   19.8130    4.6170 C.3   262  THR262      0.0375
     76  N          9.5990   21.8820    8.5670 N.3   264  ASN264     -0.1225
     77  CA         9.0890   20.8820    9.5120 C.3   264  ASN264      0.1785
     78  C          7.8460   21.4460   10.2020 C.2   264  ASN264      0.2598
     79  O          7.7000   22.6660   10.2930 O.2   264  ASN264     -0.2718
     80  CB        10.1600   20.5070   10.5500 C.3   264  ASN264      0.1169
     81  CG         9.7590   19.3080   11.4330 C.2   264  ASN264      0.2627
     82  OD1        8.8280   18.5550   11.1040 O.2   264  ASN264     -0.2716
     83  ND2       10.4620   19.1450   12.5770 N.am  264  ASN264     -0.0877
     84  N          6.9530   20.5650   10.6670 N.am  265  SER265     -0.1938
     85  CA         5.7190   20.9490   11.3810 C.3   265  SER265      0.2055
     86  C          4.9640   19.7420   11.9800 C.2   265  SER265      0.2643
     87  O          4.9480   18.6470   11.3960 O.2   265  SER265     -0.2714
     88  CB         4.7800   21.7420   10.4610 C.3   265  SER265      0.2130
     89  OG         5.2410   23.0690   10.2370 O.3   265  SER265     -0.2179
     90  N          4.3390   19.9510   13.1410 N.am  266  THR266     -0.1950
     91  CA         3.4810   18.9340   13.7640 C.3   266  THR266      0.1897
     92  C          2.0470   19.0750   13.2710 C.2   266  THR266      0.2313
     93  O          1.4930   20.1700   13.2490 O.2   266  THR266     -0.2863
     94  CB         3.5300   19.0200   15.3080 C.3   266  THR266      0.1794
     95  OG1        2.3780   18.3700   15.8660 O.3   266  THR266     -0.2208
     96  CG2        3.3820   20.4560   15.7810 C.3   266  THR266      0.0378
@<TRIPOS>BOND
     1    53    52    2
     2    50    51    1
     3    60    58    1
     4    67    66    2
     5    58    57    2
     6    58    59    1
     7    52    51    1
     8    52    61   am
     9    51    54    1
    10    57    56    1
    11    68    66   am
    12    54    55    1
    13    66    65    1
    14    55    56    1
    15    61    62    1
    16    62    65    1
    17    62    63    1
    18    63    64    2
    19    30    28   ar
    20    30    29   ar
    21    28    26   ar
    22    29    27   ar
    23    26    25   ar
    24    26    24   ar
    25    27    24   ar
    26    25    23   ar
    27    24    22   ar
    28    39    41   ar
    29    39    37   ar
    30    17    18    1
    31    41    40   ar
    32    23    22   ar
    33    22    21    1
    34    37    36   ar
    35    18    21    1
    36    18    19    1
    37    75    73    1
    38    74    73    1
    39    40    38   ar
    40    11    10    2
    41    36    38   ar
    42    36    35    1
    43    19    31   am
    44    19    20    2
    45    70    73    1
    46    70    69    1
    47    70    71    1
    48    31    32    1
    49    10     9    1
    50    35    32    1
    51    71    72    2
    52    16    15    1
    53    32    33    1
    54    15    14    1
    55    34    33    2
    56     9     8    1
    57     9    12    1
    58    13    14    1
    59    13    12    1
    60    33    42   am
    61    42    43    1
    62     4     3    2
    63    76    77    1
    64    49    48    2
    65    43    44    1
    66     3     2    1
    67    77    78    1
    68    77    80    1
    69    44    46   am
    70    44    45    2
    71    48    47    1
    72    46    47    1
    73    78    79    2
    74    78    84   am
    75    89    88    1
    76    88    85    1
    77    80    81    1
    78    84    85    1
    79     2     1    1
    80     2     5    1
    81     5     7    1
    82     5     6    1
    83    82    81    2
    84    85    86    1
    85    87    86    2
    86    81    83   am
    87    86    90   am
    88    90    91    1
    89    93    92    2
    90    92    91    1
    91    91    94    1
    92    94    96    1
    93    94    95    1
