@<TRIPOS>MOLECULE
tmp/2bf1A07.pdb
 83 78 0 0 0
SMALL
GASTEIGER

@<TRIPOS>ATOM
      1  N        -10.2390   38.5650   21.2040 N.3    73  ARG73      -0.1231
      2  CA       -11.4050   37.6450   21.2830 C.3    73  ARG73       0.1694
      3  C        -12.4520   38.0360   22.3430 C.2    73  ARG73       0.2592
      4  O        -12.2010   38.8950   23.1820 O.2    73  ARG73      -0.2718
      5  CB       -10.9410   36.1970   21.5310 C.3    73  ARG73       0.0321
      6  CG       -12.0570   35.1180   21.4040 C.3    73  ARG73       0.0489
      7  CD       -11.9140   33.8850   22.3420 C.3    73  ARG73       0.2205
      8  NE       -12.8750   32.8150   22.0320 N.pl3  73  ARG73      -0.0865
      9  CZ       -12.8740   31.5900   22.5690 C.cat  73  ARG73       0.5346
     10  NH1      -11.9600   31.2190   23.4680 N.pl3  73  ARG73       0.1354
     11  NH2      -13.8010   30.7200   22.1920 N.pl3  73  ARG73       0.1354
     12  N        -13.6210   37.3920   22.2870 N.am   74  CYS74      -0.1956
     13  CA       -14.6340   37.4090   23.3580 C.3    74  CYS74       0.1843
     14  C        -14.1360   36.7170   24.6550 C.2    74  CYS74       0.2625
     15  O        -13.2400   37.2380   25.3180 O.2    74  CYS74      -0.2714
     16  CB       -15.9180   36.7530   22.8350 C.3    74  CYS74       0.0997
     17  SG       -17.4030   36.9150   23.8400 S.3    74  CYS74      -0.0797
     18  N        -14.7370   35.5780   25.0180 N.am   75  ASN75      -0.1958
     19  CA       -14.3200   34.7080   26.1450 C.3    75  ASN75       0.1819
     20  C        -15.4830   33.7920   26.5250 C.2    75  ASN75       0.2621
     21  O        -16.6040   34.0320   26.0880 O.2    75  ASN75      -0.2715
     22  CB       -13.8400   35.5160   27.3740 C.3    75  ASN75       0.1195
     23  CG       -13.2710   34.6320   28.5190 C.2    75  ASN75       0.2630
     24  OD1      -13.9940   33.8390   29.1420 O.2    75  ASN75      -0.2716
     25  ND2      -11.9870   34.8300   28.8390 N.am   75  ASN75      -0.0877
     26  N        -15.1820   32.7290   27.2890 N.am   76  ASP76      -0.1957
     27  CA       -16.1410   31.8600   28.0430 C.3    76  ASP76       0.1840
     28  C        -15.7780   30.3770   28.0330 C.2    76  ASP76       0.2623
     29  O        -15.1380   29.8910   28.9690 O.2    76  ASP76      -0.2715
     30  CB       -17.6170   32.0490   27.6370 C.3    76  ASP76       0.1450
     31  CG       -18.6040   31.5020   28.6920 C.2    76  ASP76       0.3671
     32  OD1      -18.8630   30.2800   28.7050 O.co2  76  ASP76      -0.2456
     33  OD2      -19.1890   32.2200   29.5380 O.co2  76  ASP76      -0.2456
     34  N        -16.2240   29.6710   26.9860 N.am   77  THR77      -0.1937
     35  CA       -16.0010   28.2190   26.8150 C.3    77  THR77       0.2028
     36  C        -14.9280   27.8950   25.7460 C.2    77  THR77       0.2642
     37  O        -14.5230   28.7730   24.9570 O.2    77  THR77      -0.2714
     38  CB       -17.3350   27.4630   26.4770 C.3    77  THR77       0.1808
     39  OG1      -18.4570   28.1190   27.0790 O.3    77  THR77      -0.2208
     40  CG2      -17.3520   26.0560   27.1010 C.3    77  THR77       0.0379
     41  N        -14.4840   26.6310   25.7340 N.am   78  ASN78      -0.1971
     42  CA       -13.4450   26.1570   24.8250 C.3    78  ASN78       0.1688
     43  C        -13.6760   26.6630   23.4120 C.2    78  ASN78       0.2292
     44  O        -12.8450   27.4190   22.8990 O.2    78  ASN78      -0.2864
     45  CB       -13.3590   24.6410   24.8710 C.3    78  ASN78       0.1181
     46  CG       -14.6820   24.0220   25.1460 C.2    78  ASN78       0.2629
     47  OD1      -15.6070   24.1430   24.3480 O.2    78  ASN78      -0.2716
     48  ND2      -14.8050   23.3920   26.2980 N.am   78  ASN78      -0.0877
     49  N        -17.2440   39.5850   28.0940 N.3    88  LYS88      -0.1245
     50  CA       -15.8470   40.0040   28.3800 C.3    88  LYS88       0.1561
     51  C        -14.9540   39.8780   27.1330 C.2    88  LYS88       0.2260
     52  O        -15.2180   39.0610   26.2600 O.2    88  LYS88      -0.2867
     53  CB       -15.2700   39.1740   29.5430 C.3    88  LYS88       0.0271
     54  CG       -13.9110   39.6360   30.0840 C.3    88  LYS88       0.0035
     55  CD       -13.4590   38.7980   31.2820 C.3    88  LYS88       0.0206
     56  CE       -12.1910   39.3540   31.9220 C.3    88  LYS88       0.1093
     57  NZ       -12.4250   40.5500   32.7960 N.3    88  LYS88      -0.1314
     58  N        -10.6780   40.4960   25.3170 N.3    90  VAL90      -0.1245
     59  CA        -9.2410   40.6910   25.5840 C.3    90  VAL90       0.1561
     60  C         -8.4490   41.5240   24.5700 C.2    90  VAL90       0.2260
     61  O         -9.0140   42.1420   23.6710 O.2    90  VAL90      -0.2867
     62  CB        -8.5150   39.3520   25.8560 C.3    90  VAL90       0.0252
     63  CG1       -7.2380   39.5780   26.7090 C.3    90  VAL90       0.0019
     64  CG2       -9.4430   38.4230   26.5880 C.3    90  VAL90       0.0019
     65  N         -3.4950   19.6950   23.9850 N.3   112  ARG112     -0.1245
     66  CA        -4.3220   18.6220   24.5230 C.3   112  ARG112      0.1563
     67  C         -5.0840   18.0240   23.3600 C.2   112  ARG112      0.2260
     68  O         -6.3130   18.0670   23.3150 O.2   112  ARG112     -0.2867
     69  CB        -5.2740   19.1380   25.6020 C.3   112  ARG112      0.0307
     70  CG        -5.7310   18.0710   26.6340 C.3   112  ARG112      0.0489
     71  CD        -6.0800   18.6240   28.0290 C.3   112  ARG112      0.2205
     72  NE        -5.0320   19.5380   28.4630 N.pl3 112  ARG112     -0.0865
     73  CZ        -5.0590   20.8480   28.2740 C.cat 112  ARG112      0.5346
     74  NH1       -6.1010   21.4250   27.6870 N.pl3 112  ARG112      0.1354
     75  NH2       -4.0370   21.5800   28.6770 N.pl3 112  ARG112      0.1354
     76  N         -7.6320   31.2690   19.8380 N.3   298  LEU298     -0.1245
     77  CA        -8.7330   31.9420   20.5190 C.3   298  LEU298      0.1561
     78  C        -10.0200   31.1020   20.5500 C.2   298  LEU298      0.2260
     79  O        -10.2310   30.2380   21.4290 O.2   298  LEU298     -0.2867
     80  CB        -8.9840   33.3340   19.8790 C.3   298  LEU298      0.0270
     81  CG        -8.6050   33.6630   18.4250 C.3   298  LEU298      0.0019
     82  CD1       -9.4580   32.9190   17.4670 C.3   298  LEU298      0.0001
     83  CD2       -8.7240   35.1450   18.1430 C.3   298  LEU298      0.0001
@<TRIPOS>BOND
     1    82    81    1
     2    83    81    1
     3    81    80    1
     4    76    77    1
     5    80    77    1
     6    77    78    1
     7    78    79    2
     8     1     2    1
     9     2     5    1
    10     2     3    1
    11     6     5    1
    12     6     7    1
    13     8     7    1
    14     8     9    2
    15    11     9    1
    16    12     3   am
    17    12    13    1
    18     3     4    2
    19     9    10    1
    20    16    13    1
    21    16    17    1
    22    44    43    2
    23    68    67    2
    24    13    14    1
    25    67    66    1
    26    43    42    1
    27    61    60    2
    28    65    66    1
    29    47    46    2
    30    66    69    1
    31    60    59    1
    32    14    18   am
    33    14    15    2
    34    42    45    1
    35    42    41    1
    36    45    46    1
    37    37    36    2
    38    18    19    1
    39    46    48   am
    40    58    59    1
    41    59    62    1
    42    69    70    1
    43    41    36   am
    44    36    35    1
    45    62    64    1
    46    62    63    1
    47    21    20    2
    48    19    20    1
    49    19    22    1
    50    52    51    2
    51    38    35    1
    52    38    39    1
    53    38    40    1
    54    20    26   am
    55    70    71    1
    56    35    34    1
    57    34    28   am
    58    51    50    1
    59    26    27    1
    60    22    23    1
    61    30    27    1
    62    30    31    1
    63    74    73    1
    64    71    72    1
    65    28    27    1
    66    28    29    2
    67    49    50    1
    68    73    72    2
    69    73    75    1
    70    50    53    1
    71    23    25   am
    72    23    24    2
    73    31    32   ar
    74    31    33   ar
    75    53    54    1
    76    54    55    1
    77    55    56    1
    78    56    57    1
