@<TRIPOS>MOLECULE
tmp/2bf4A02.pdb
 162 154 0 0 0
SMALL
GASTEIGER

@<TRIPOS>ATOM
      1  N          3.7260   48.7930  136.9390 N.3    23  THR23      -0.1203
      2  CA         4.7580   47.7790  136.8150 C.3    23  THR23       0.1994
      3  C          5.3760   47.3700  138.1530 C.2    23  THR23       0.2618
      4  O          6.2160   46.4750  138.2240 O.2    23  THR23      -0.2717
      5  CB         5.8420   48.3030  135.8660 C.3    23  THR23       0.1784
      6  OG1        5.3420   48.2400  134.5330 O.3    23  THR23      -0.2211
      7  CG2        7.1380   47.5160  135.9800 C.3    23  THR23       0.0376
      8  N          4.9580   48.0290  139.2200 N.am   24  GLY24      -0.1942
      9  CA         5.4730   47.6820  140.5260 C.3    24  GLY24       0.2014
     10  C          6.6410   48.5100  141.0120 C.2    24  GLY24       0.2639
     11  O          7.0320   48.3800  142.1740 O.2    24  GLY24      -0.2714
     12  N          7.2080   49.3610  140.1610 N.am   25  THR25      -0.1950
     13  CA         8.3290   50.1750  140.6100 C.3    25  THR25       0.1897
     14  C          7.9310   51.0530  141.7920 C.2    25  THR25       0.2313
     15  O          8.6160   51.0680  142.8190 O.2    25  THR25      -0.2863
     16  CB         8.9150   51.0580  139.4780 C.3    25  THR25       0.1794
     17  OG1        9.3360   50.2340  138.3800 O.3    25  THR25      -0.2208
     18  CG2       10.1270   51.8280  139.9930 C.3    25  THR25       0.0378
     19  N          7.3890   48.9220  145.0110 N.3    28  ASP28      -0.1225
     20  CA         8.6170   48.4950  145.6650 C.3    28  ASP28       0.1805
     21  C          9.2920   49.6220  146.4400 C.2    28  ASP28       0.2597
     22  O          9.7290   49.4250  147.5720 O.2    28  ASP28      -0.2718
     23  CB         9.5820   47.9000  144.6320 C.3    28  ASP28       0.1424
     24  CG        10.9150   47.4800  145.2430 C.2    28  ASP28       0.3668
     25  OD1       10.9350   46.8840  146.3490 O.co2  28  ASP28      -0.2456
     26  OD2       11.9550   47.7410  144.6050 O.co2  28  ASP28      -0.2456
     27  N          9.3850   50.8060  145.8450 N.am   29  TYR29      -0.1976
     28  CA         9.9840   51.9160  146.5630 C.3    29  TYR29       0.1639
     29  C          9.1390   52.2500  147.7710 C.2    29  TYR29       0.2290
     30  O          9.6630   52.5470  148.8410 O.2    29  TYR29      -0.2864
     31  CB        10.1680   53.1270  145.6490 C.3    29  TYR29       0.0560
     32  CG        11.4710   53.0360  144.8910 C.ar   29  TYR29      -0.0198
     33  CD1       11.5010   52.6830  143.5450 C.ar   29  TYR29      -0.0009
     34  CD2       12.6920   53.1960  145.5560 C.ar   29  TYR29      -0.0009
     35  CE1       12.7040   52.4850  142.8880 C.ar   29  TYR29       0.0417
     36  CE2       13.9030   52.9980  144.9060 C.ar   29  TYR29       0.0417
     37  CZ        13.9000   52.6390  143.5760 C.ar   29  TYR29       0.1957
     38  OH        15.0890   52.3920  142.9420 O.3    29  TYR29      -0.2866
     39  N         10.1930   50.0310  150.3260 N.3    32  LYS32      -0.1245
     40  CA        11.4970   50.4160  150.8580 C.3    32  LYS32       0.1561
     41  C         11.3200   51.5010  151.9130 C.2    32  LYS32       0.2260
     42  O         11.9200   51.4540  152.9820 O.2    32  LYS32      -0.2867
     43  CB        12.4060   50.9260  149.7370 C.3    32  LYS32       0.0271
     44  CG        13.0690   49.8260  148.9350 C.3    32  LYS32       0.0035
     45  CD        13.7630   50.3640  147.6920 C.3    32  LYS32       0.0206
     46  CE        14.6940   49.3200  147.0520 C.3    32  LYS32       0.1093
     47  NZ        14.0400   48.0270  146.6920 N.3    32  LYS32      -0.1314
     48  N         13.2600   58.0860  135.3240 N.3   141  ASP141     -0.1239
     49  CA        13.6560   56.8240  134.7390 C.3   141  ASP141      0.1674
     50  C         14.3990   57.0770  133.4120 C.2   141  ASP141      0.2266
     51  O         15.2140   56.2680  132.9750 O.2   141  ASP141     -0.2867
     52  CB        12.4050   55.9700  134.5140 C.3   141  ASP141      0.1410
     53  CG        12.6920   54.4890  134.5810 C.2   141  ASP141      0.3668
     54  OD1       12.9180   53.9760  135.6990 O.co2 141  ASP141     -0.2456
     55  OD2       12.6970   53.8400  133.5120 O.co2 141  ASP141     -0.2456
     56  N         17.8970   57.3740  134.0570 N.3   144  GLY144     -0.1210
     57  CA        18.3480   56.2390  134.8410 C.3   144  GLY144      0.1956
     58  C         18.8010   56.6320  136.2360 C.2   144  GLY144      0.2613
     59  O         19.7510   56.0680  136.7710 O.2   144  GLY144     -0.2717
     60  N         18.1090   57.5950  136.8330 N.am  145  THR145     -0.1938
     61  CA        18.4480   58.0820  138.1680 C.3   145  THR145      0.2028
     62  C         17.3640   57.8240  139.2150 C.2   145  THR145      0.2643
     63  O         17.4310   58.3200  140.3380 O.2   145  THR145     -0.2714
     64  CB        18.7480   59.5860  138.1280 C.3   145  THR145      0.1808
     65  OG1       17.5700   60.3000  137.7260 O.3   145  THR145     -0.2208
     66  CG2       19.8670   59.8660  137.1380 C.3   145  THR145      0.0379
     67  N         16.3690   57.0380  138.8260 N.am  146  THR146     -0.1936
     68  CA        15.2530   56.6740  139.6840 C.3   146  THR146      0.2028
     69  C         15.6690   56.2260  141.0960 C.2   146  THR146      0.2642
     70  O         15.1280   56.7200  142.0830 O.2   146  THR146     -0.2714
     71  CB        14.4330   55.5760  139.0120 C.3   146  THR146      0.1808
     72  OG1       15.2310   54.9590  137.9880 O.3   146  THR146     -0.2208
     73  CG2       13.1830   56.1610  138.3790 C.3   146  THR146      0.0379
     74  N         16.6280   55.3090  141.2130 N.am  147  ASP147     -0.1957
     75  CA        17.0390   54.8600  142.5420 C.3   147  ASP147      0.1840
     76  C         17.6890   55.9720  143.3600 C.2   147  ASP147      0.2621
     77  O         17.3660   56.1540  144.5290 O.2   147  ASP147     -0.2715
     78  CB        18.0000   53.6730  142.4630 C.3   147  ASP147      0.1450
     79  CG        18.1800   52.9690  143.8200 C.2   147  ASP147      0.3671
     80  OD1       17.1860   52.4440  144.3770 O.co2 147  ASP147     -0.2456
     81  OD2       19.3180   52.9380  144.3350 O.co2 147  ASP147     -0.2456
     82  N         18.6110   56.7100  142.7580 N.am  148  GLU148     -0.1977
     83  CA        19.2630   57.7930  143.4740 C.3   148  GLU148      0.1602
     84  C         18.2770   58.9140  143.7650 C.2   148  GLU148      0.2287
     85  O         18.3460   59.5470  144.8220 O.2   148  GLU148     -0.2864
     86  CB        20.4620   58.3260  142.6860 C.3   148  GLU148      0.0415
     87  CG        21.7300   57.4680  142.7840 C.3   148  GLU148      0.1163
     88  CD        22.2580   57.3100  144.2150 C.2   148  GLU148      0.3649
     89  OE1       22.0590   58.2360  145.0350 O.co2 148  GLU148     -0.2457
     90  OE2       22.8890   56.2650  144.5120 O.co2 148  GLU148     -0.2457
     91  N         12.5380   38.9920  142.1050 N.3   315  GLU315     -0.1245
     92  CA        13.3110   39.5240  140.9960 C.3   315  GLU315      0.1567
     93  C         14.7550   39.5550  141.4780 C.2   315  GLU315      0.2260
     94  O         15.2760   40.6170  141.8170 O.2   315  GLU315     -0.2867
     95  CB        12.8670   40.9500  140.6460 C.3   315  GLU315      0.0388
     96  CG        11.8800   41.0810  139.4900 C.3   315  GLU315      0.1160
     97  CD        12.4760   40.7190  138.1480 C.2   315  GLU315      0.3649
     98  OE1       13.6520   40.3160  138.0860 O.co2 315  GLU315     -0.2457
     99  OE2       11.7600   40.8390  137.1420 O.co2 315  GLU315     -0.2457
    100  N         19.4010   45.8270  138.4290 N.3   319  PRO319     -0.2102
    101  CA        20.1800   46.8090  139.1880 C.3   319  PRO319      0.1504
    102  C         19.9400   46.7500  140.6770 C.2   319  PRO319      0.2576
    103  O         18.8010   46.7570  141.1220 O.2   319  PRO319     -0.2718
    104  CB        19.7220   48.1340  138.6090 C.3   319  PRO319      0.0282
    105  CG        19.4040   47.7960  137.2260 C.3   319  PRO319      0.0208
    106  CD        18.6780   46.4840  137.3320 C.3   319  PRO319      0.0893
    107  N         21.0210   46.7090  141.4440 N.am  320  VAL320     -0.1966
    108  CA        20.9370   46.6620  142.9010 C.3   320  VAL320      0.1727
    109  C         20.7140   48.0760  143.4680 C.2   320  VAL320      0.2616
    110  O         21.4630   49.0020  143.1590 O.2   320  VAL320     -0.2715
    111  CB        22.2460   46.0850  143.5110 C.3   320  VAL320      0.0290
    112  CG1       22.1300   45.9870  145.0200 C.3   320  VAL320      0.0023
    113  CG2       22.5470   44.7390  142.9160 C.3   320  VAL320      0.0023
    114  N         19.6880   48.2500  144.2930 N.am  321  SER321     -0.1950
    115  CA        19.4340   49.5570  144.8820 C.3   321  SER321      0.1924
    116  C         20.4550   49.8570  145.9620 C.2   321  SER321      0.2314
    117  O         20.9160   48.9530  146.6490 O.2   321  SER321     -0.2863
    118  CB        18.0420   49.6140  145.5050 C.3   321  SER321      0.2116
    119  OG        17.8950   50.7990  146.2610 O.3   321  SER321     -0.2180
    120  N         29.4250   53.9210  145.0190 N.3   351  PHE351     -0.1241
    121  CA        28.5020   52.8140  144.8140 C.3   351  PHE351      0.1605
    122  C         28.3500   52.5280  143.3280 C.2   351  PHE351      0.2264
    123  O         28.3620   51.3720  142.9010 O.2   351  PHE351     -0.2867
    124  CB        27.1320   53.1340  145.4170 C.3   351  PHE351      0.0534
    125  CG        26.1290   52.0080  145.2900 C.ar  351  PHE351     -0.0203
    126  CD1       26.2130   50.8820  146.1110 C.ar  351  PHE351     -0.0042
    127  CD2       25.1100   52.0710  144.3430 C.ar  351  PHE351     -0.0042
    128  CE1       25.3010   49.8370  145.9920 C.ar  351  PHE351     -0.0003
    129  CE2       24.1950   51.0370  144.2150 C.ar  351  PHE351     -0.0003
    130  CZ        24.2900   49.9130  145.0430 C.ar  351  PHE351     -0.0000
    131  N         27.1100   49.4950  140.5910 N.3   356  THR356     -0.1218
    132  CA        26.2740   49.7860  139.4330 C.3   356  THR356      0.1862
    133  C         26.8910   49.6210  138.0460 C.2   356  THR356      0.2287
    134  O         26.3810   48.8680  137.2050 O.2   356  THR356     -0.2866
    135  CB        25.7050   51.1930  139.5190 C.3   356  THR356      0.1770
    136  OG1       24.9910   51.3360  140.7450 O.3   356  THR356     -0.2211
    137  CG2       24.7580   51.4440  138.3640 C.3   356  THR356      0.0375
    138  N         12.8520   42.7910  145.3710 N.3   388  PRO388     -0.2116
    139  CA        11.6620   43.0810  144.5690 C.3   388  PRO388      0.1372
    140  C         10.9540   41.8270  144.0650 C.2   388  PRO388      0.2244
    141  O         11.5960   40.8270  143.7440 O.2   388  PRO388     -0.2868
    142  CB        12.2230   43.9280  143.4310 C.3   388  PRO388      0.0268
    143  CG        13.3470   44.6350  144.0760 C.3   388  PRO388      0.0207
    144  CD        14.0080   43.5520  144.8690 C.3   388  PRO388      0.0892
    145  N          7.8620   40.3980  138.2900 N.3   391  THR391     -0.1218
    146  CA         6.6690   40.9690  137.6930 C.3   391  THR391      0.1862
    147  C          6.4980   40.6230  136.2330 C.2   391  THR391      0.2287
    148  O          7.4740   40.4340  135.5210 O.2   391  THR391     -0.2866
    149  CB         6.7290   42.4850  137.8590 C.3   391  THR391      0.1770
    150  OG1        6.2440   42.8300  139.1560 O.3   391  THR391     -0.2211
    151  CG2        5.9460   43.1850  136.7960 C.3   391  THR391      0.0375
    152  N          6.0730   40.9830  132.2610 N.3   393  ARG393     -0.1245
    153  CA         6.5790   41.9660  131.3140 C.3   393  ARG393      0.1563
    154  C          5.4920   42.0190  130.2530 C.2   393  ARG393      0.2260
    155  O          4.9180   40.9890  129.9140 O.2   393  ARG393     -0.2867
    156  CB         7.8910   41.4990  130.6880 C.3   393  ARG393      0.0307
    157  CG         8.8450   40.8310  131.6630 C.3   393  ARG393      0.0489
    158  CD         9.4070   41.7720  132.6910 C.3   393  ARG393      0.2205
    159  NE        10.7620   41.3690  133.0810 N.pl3 393  ARG393     -0.0865
    160  CZ        11.1060   40.9150  134.2840 C.cat 393  ARG393      0.5346
    161  NH1       10.1910   40.7930  135.2340 N.pl3 393  ARG393      0.1354
    162  NH2       12.3730   40.6060  134.5450 N.pl3 393  ARG393      0.1354
@<TRIPOS>BOND
     1   155   154    2
     2   154   153    1
     3   156   153    1
     4   156   157    1
     5   153   152    1
     6   157   158    1
     7   158   159    1
     8    51    50    2
     9   159   160    2
    10    50    49    1
    11    55    53   ar
    12    56    57    1
    13   160   162    1
    14   160   161    1
    15    52    53    1
    16    52    49    1
    17     6     5    1
    18    53    54   ar
    19    49    48    1
    20    57    58    1
    21   148   147    2
    22     5     7    1
    23     5     2    1
    24   147   146    1
    25    58    59    2
    26    58    60   am
    27   151   149    1
    28     2     1    1
    29     2     3    1
    30    60    61    1
    31    66    64    1
    32    99    97   ar
    33   134   133    2
    34   105   106    1
    35   105   104    1
    36   106   100    1
    37   146   149    1
    38   146   145    1
    39    65    64    1
    40   149   150    1
    41    72    71    1
    42   133   132    1
    43    98    97   ar
    44    64    61    1
    45    97    96    1
    46     3     4    2
    47     3     8   am
    48    61    62    1
    49   137   135    1
    50    73    71    1
    51    17    16    1
    52   100   101    1
    53   104   101    1
    54    67    62   am
    55    67    68    1
    56    71    68    1
    57   101   102    1
    58    62    63    2
    59     8     9    1
    60   132   135    1
    61   132   131    1
    62    16    18    1
    63    16    13    1
    64    96    95    1
    65   135   136    1
    66    68    69    1
    67    12    13    1
    68    12    10   am
    69     9    10    1
    70    13    14    1
    71    95    92    1
    72   102   103    2
    73   102   107   am
    74    92    93    1
    75    92    91    1
    76    10    11    2
    77    69    74   am
    78    69    70    2
    79    74    75    1
    80   107   108    1
    81    93    94    2
    82    14    15    2
    83    78    75    1
    84    78    79    1
    85    75    76    1
    86    86    87    1
    87    86    83    1
    88    82    76   am
    89    82    83    1
    90    87    88    1
    91    35    33   ar
    92    35    37   ar
    93   108   109    1
    94   108   111    1
    95   123   122    2
    96   113   111    1
    97    38    37    1
    98   110   109    2
    99   122   121    1
   100    76    77    2
   101   142   143    1
   102   142   139    1
   103   109   114   am
   104    83    84    1
   105   111   112    1
   106    33    32   ar
   107    37    36   ar
   108   141   140    2
   109    84    85    2
   110    79    81   ar
   111    79    80   ar
   112   140   139    1
   113   143   144    1
   114   129   127   ar
   115   129   130   ar
   116    88    90   ar
   117    88    89   ar
   118   114   115    1
   119   127   125   ar
   120   139   138    1
   121    26    24   ar
   122    23    24    1
   123    23    20    1
   124   121   120    1
   125   121   124    1
   126   144   138    1
   127   115   118    1
   128   115   116    1
   129    32    34   ar
   130    32    31    1
   131    36    34   ar
   132    19    20    1
   133   130   128   ar
   134    24    25   ar
   135   125   124    1
   136   125   126   ar
   137   118   119    1
   138    31    28    1
   139    20    21    1
   140    27    21   am
   141    27    28    1
   142   116   117    2
   143   128   126   ar
   144    21    22    2
   145    28    29    1
   146    47    46    1
   147    46    45    1
   148    45    44    1
   149    29    30    2
   150    44    43    1
   151    43    40    1
   152    39    40    1
   153    40    41    1
   154    41    42    2
