@<TRIPOS>MOLECULE
tmp/2bf4A01.pdb
 208 205 0 0 0
SMALL
GASTEIGER

@<TRIPOS>ATOM
      1  N          0.9550   51.9080  141.3370 N.3    21  SER21      -0.1202
      2  CA         1.9670   51.3890  140.4390 C.3    21  SER21       0.2020
      3  C          1.5200   50.3510  139.4150 C.2    21  SER21       0.2619
      4  O          0.9070   49.3390  139.7500 O.2    21  SER21      -0.2717
      5  CB         3.1180   50.8250  141.2770 C.3    21  SER21       0.2103
      6  OG         3.9000   49.9170  140.5430 O.3    21  SER21      -0.2182
      7  N          1.8600   50.5930  138.1600 N.am   22  GLN22      -0.1965
      8  CA         1.4870   49.6850  137.0980 C.3    22  GLN22       0.1733
      9  C          2.4380   48.4940  137.0040 C.2    22  GLN22       0.2617
     10  O          2.0200   47.3390  136.9860 O.2    22  GLN22      -0.2715
     11  CB         1.4920   50.4360  135.7670 C.3    22  GLN22       0.0408
     12  CG         1.1140   49.5830  134.5760 C.3    22  GLN22       0.0908
     13  CD        -0.2640   48.9760  134.7450 C.2    22  GLN22       0.2608
     14  OE1       -1.2710   49.6970  134.8080 O.2    22  GLN22      -0.2717
     15  NE2       -0.3220   47.6420  134.8370 N.am   22  GLN22      -0.0878
     16  N          3.7260   48.7930  136.9390 N.am   23  THR23      -0.1951
     17  CA         4.7580   47.7790  136.8150 C.3    23  THR23       0.1897
     18  C          5.3760   47.3700  138.1530 C.2    23  THR23       0.2313
     19  O          6.2160   46.4750  138.2240 O.2    23  THR23      -0.2863
     20  CB         5.8420   48.3030  135.8660 C.3    23  THR23       0.1794
     21  OG1        5.3420   48.2400  134.5330 O.3    23  THR23      -0.2208
     22  CG2        7.1380   47.5160  135.9800 C.3    23  THR23       0.0378
     23  N          7.2080   49.3610  140.1610 N.3    25  THR25      -0.1203
     24  CA         8.3290   50.1750  140.6100 C.3    25  THR25       0.1994
     25  C          7.9310   51.0530  141.7920 C.2    25  THR25       0.2617
     26  O          8.6160   51.0680  142.8190 O.2    25  THR25      -0.2717
     27  CB         8.9150   51.0580  139.4780 C.3    25  THR25       0.1784
     28  OG1        9.3360   50.2340  138.3800 O.3    25  THR25      -0.2211
     29  CG2       10.1270   51.8280  139.9930 C.3    25  THR25       0.0376
     30  N          6.8150   51.7660  141.6510 N.am   26  ALA26      -0.1979
     31  CA         6.3140   52.6410  142.7060 C.3    26  ALA26       0.1597
     32  C          6.0230   51.8320  143.9600 C.2    26  ALA26       0.2287
     33  O          6.3040   52.2820  145.0720 O.2    26  ALA26      -0.2864
     34  CB         5.0560   53.3620  142.2370 C.3    26  ALA26       0.0319
     35  N          2.9930   56.6300  139.9060 N.3    70  SER70      -0.1202
     36  CA         3.6850   56.5090  138.6270 C.3    70  SER70       0.2020
     37  C          2.8860   57.2280  137.5530 C.2    70  SER70       0.2619
     38  O          1.7000   57.5080  137.7380 O.2    70  SER70      -0.2717
     39  CB         3.8350   55.0430  138.2360 C.3    70  SER70       0.2103
     40  OG         4.5650   54.3350  139.2160 O.3    70  SER70      -0.2182
     41  N          3.5280   57.5130  136.4250 N.am   71  THR71      -0.1938
     42  CA         2.8680   58.2170  135.3320 C.3    71  THR71       0.2028
     43  C          2.7930   57.3360  134.0880 C.2    71  THR71       0.2642
     44  O          3.8000   56.7840  133.6520 O.2    71  THR71      -0.2714
     45  CB         3.6480   59.4830  134.9600 C.3    71  THR71       0.1808
     46  OG1        3.6610   60.3790  136.0710 O.3    71  THR71      -0.2208
     47  CG2        3.0200   60.1660  133.7770 C.3    71  THR71       0.0379
     48  N          1.5960   57.2060  133.5240 N.am   72  TYR72      -0.1959
     49  CA         1.3970   56.4170  132.3190 C.3    72  TYR72       0.1771
     50  C          0.5140   57.1340  131.3180 C.2    72  TYR72       0.2620
     51  O         -0.0560   58.1750  131.6410 O.2    72  TYR72      -0.2715
     52  CB         0.7960   55.0580  132.6580 C.3    72  TYR72       0.0574
     53  CG         1.7970   54.0690  133.2000 C.ar   72  TYR72      -0.0198
     54  CD1        2.3620   54.2390  134.4660 C.ar   72  TYR72      -0.0009
     55  CD2        2.1870   52.9620  132.4440 C.ar   72  TYR72      -0.0009
     56  CE1        3.2940   53.3290  134.9710 C.ar   72  TYR72       0.0417
     57  CE2        3.1160   52.0450  132.9360 C.ar   72  TYR72       0.0417
     58  CZ         3.6670   52.2320  134.2010 C.ar   72  TYR72       0.1957
     59  OH         4.5850   51.3260  134.6950 O.3    72  TYR72      -0.2866
     60  N          0.3910   56.5820  130.1120 N.am   73  GLY73      -0.1940
     61  CA        -0.4360   57.2200  129.0990 C.3    73  GLY73       0.2014
     62  C         -0.0680   58.6840  129.0560 C.2    73  GLY73       0.2638
     63  O          1.1060   59.0270  128.9250 O.2    73  GLY73      -0.2714
     64  N         -1.0670   59.5500  129.1720 N.am   74  GLU74      -0.1977
     65  CA        -0.8350   60.9900  129.1880 C.3    74  GLU74       0.1602
     66  C         -0.2380   61.2500  130.5790 C.2    74  GLU74       0.2287
     67  O          0.5060   60.4240  131.1000 O.2    74  GLU74      -0.2864
     68  CB        -2.1670   61.7160  129.0330 C.3    74  GLU74       0.0415
     69  CG        -2.0600   63.1930  128.7640 C.3    74  GLU74       0.1163
     70  CD        -3.2680   63.9450  129.2770 C.2    74  GLU74       0.3649
     71  OE1       -3.4240   64.0280  130.5160 O.co2  74  GLU74      -0.2457
     72  OE2       -4.0630   64.4420  128.4470 O.co2  74  GLU74      -0.2457
     73  N          6.9800   58.7620  140.2430 N.3   106  LEU106     -0.1231
     74  CA         7.8600   58.0370  139.3410 C.3   106  LEU106      0.1693
     75  C          7.4550   58.2820  137.9010 C.2   106  LEU106      0.2593
     76  O          6.3030   58.0760  137.5330 O.2   106  LEU106     -0.2718
     77  CB         7.8450   56.5320  139.6280 C.3   106  LEU106      0.0284
     78  CG         8.5470   56.0460  140.8940 C.3   106  LEU106      0.0019
     79  CD1        7.6770   56.3080  142.0890 C.3   106  LEU106      0.0001
     80  CD2        8.8250   54.5690  140.7800 C.3   106  LEU106      0.0001
     81  N          8.4150   58.7260  137.0940 N.am  107  GLY107     -0.1942
     82  CA         8.1560   59.0030  135.6940 C.3   107  GLY107      0.2014
     83  C          9.3900   58.8450  134.8190 C.2   107  GLY107      0.2638
     84  O         10.3500   58.1510  135.1710 O.2   107  GLY107     -0.2714
     85  N          9.3630   59.5020  133.6650 N.am  108  ASN108     -0.1972
     86  CA        10.4620   59.4330  132.7100 C.3   108  ASN108      0.1688
     87  C         10.4090   60.6410  131.7850 C.2   108  ASN108      0.2292
     88  O          9.5060   60.7610  130.9560 O.2   108  ASN108     -0.2864
     89  CB        10.3620   58.1450  131.8970 C.3   108  ASN108      0.1181
     90  CG        11.5120   57.9730  130.9530 C.2   108  ASN108      0.2629
     91  OD1       11.9140   58.9120  130.2830 O.2   108  ASN108     -0.2716
     92  ND2       12.0450   56.7660  130.8830 N.am  108  ASN108     -0.0877
     93  N          9.2060   61.2520  128.0000 N.3   111  TYR111     -0.1227
     94  CA         7.8190   61.4120  127.5640 C.3   111  TYR111      0.1736
     95  C          7.3140   62.8240  127.8510 C.2   111  TYR111      0.2595
     96  O          7.8080   63.4940  128.7570 O.2   111  TYR111     -0.2718
     97  CB         6.8900   60.4510  128.3040 C.3   111  TYR111      0.0548
     98  CG         7.2070   58.9880  128.2010 C.ar  111  TYR111     -0.0200
     99  CD1        8.2990   58.4430  128.8620 C.ar  111  TYR111     -0.0009
    100  CD2        6.3540   58.1270  127.5120 C.ar  111  TYR111     -0.0009
    101  CE1        8.5280   57.0690  128.8530 C.ar  111  TYR111      0.0417
    102  CE2        6.5750   56.7510  127.4900 C.ar  111  TYR111      0.0417
    103  CZ         7.6600   56.2250  128.1660 C.ar  111  TYR111      0.1957
    104  OH         7.8630   54.8630  128.1760 O.3   111  TYR111     -0.2866
    105  N          6.3350   63.2830  127.0760 N.am  112  GLU112     -0.1965
    106  CA         5.7430   64.5780  127.3590 C.3   112  GLU112      0.1733
    107  C          4.8470   64.2320  128.5450 C.2   112  GLU112      0.2616
    108  O          4.3250   63.1130  128.6190 O.2   112  GLU112     -0.2715
    109  CB         4.9200   65.0880  126.1760 C.3   112  GLU112      0.0429
    110  CG         5.6900   65.2090  124.8680 C.3   112  GLU112      0.1163
    111  CD         4.8650   65.8840  123.7750 C.2   112  GLU112      0.3649
    112  OE1        3.6180   65.7260  123.7820 O.co2 112  GLU112     -0.2457
    113  OE2        5.4600   66.5620  122.9040 O.co2 112  GLU112     -0.2457
    114  N          4.6670   65.1710  129.4690 N.am  113  PHE113     -0.1960
    115  CA         3.8550   64.9270  130.6620 C.3   113  PHE113      0.1771
    116  C          4.7380   64.0910  131.5810 C.2   113  PHE113      0.2620
    117  O          4.3390   63.0470  132.0900 O.2   113  PHE113     -0.2715
    118  CB         2.5540   64.1870  130.3090 C.3   113  PHE113      0.0574
    119  CG         1.6670   64.9420  129.3420 C.ar  113  PHE113     -0.0200
    120  CD1        2.1600   65.3780  128.1050 C.ar  113  PHE113     -0.0042
    121  CD2        0.3430   65.2200  129.6630 C.ar  113  PHE113     -0.0042
    122  CE1        1.3560   66.0770  127.2050 C.ar  113  PHE113     -0.0003
    123  CE2       -0.4700   65.9200  128.7670 C.ar  113  PHE113     -0.0003
    124  CZ         0.0430   66.3480  127.5350 C.ar  113  PHE113     -0.0000
    125  N          5.9640   64.5670  131.7650 N.am  114  PHE114     -0.1960
    126  CA         6.9260   63.9060  132.6250 C.3   114  PHE114      0.1771
    127  C          6.5060   63.9780  134.0840 C.2   114  PHE114      0.2619
    128  O          6.5330   65.0450  134.6850 O.2   114  PHE114     -0.2715
    129  CB         8.2960   64.5530  132.4640 C.3   114  PHE114      0.0574
    130  CG         9.2600   64.1680  133.5340 C.ar  114  PHE114     -0.0200
    131  CD1        9.8750   65.1370  134.3120 C.ar  114  PHE114     -0.0042
    132  CD2        9.5210   62.8320  133.8020 C.ar  114  PHE114     -0.0042
    133  CE1       10.7330   64.7790  135.3430 C.ar  114  PHE114     -0.0003
    134  CE2       10.3800   62.4630  134.8330 C.ar  114  PHE114     -0.0003
    135  CZ        10.9860   63.4380  135.6050 C.ar  114  PHE114     -0.0000
    136  N          6.1310   62.8390  134.6510 N.am  115  ASN115     -0.1972
    137  CA         5.7040   62.7790  136.0400 C.3   115  ASN115      0.1688
    138  C          4.4020   63.5370  136.2520 C.2   115  ASN115      0.2292
    139  O          4.0900   63.9560  137.3690 O.2   115  ASN115     -0.2864
    140  CB         6.7960   63.3420  136.9400 C.3   115  ASN115      0.1181
    141  CG         7.0520   62.4730  138.1480 C.2   115  ASN115      0.2629
    142  OD1        6.8080   62.8830  139.2800 O.2   115  ASN115     -0.2716
    143  ND2        7.5400   61.2570  137.9150 N.am  115  ASN115     -0.0877
    144  N         13.2600   58.0860  135.3240 N.3   141  ASP141     -0.1239
    145  CA        13.6560   56.8240  134.7390 C.3   141  ASP141      0.1674
    146  C         14.3990   57.0770  133.4120 C.2   141  ASP141      0.2266
    147  O         15.2140   56.2680  132.9750 O.2   141  ASP141     -0.2867
    148  CB        12.4050   55.9700  134.5140 C.3   141  ASP141      0.1410
    149  CG        12.6920   54.4890  134.5810 C.2   141  ASP141      0.3668
    150  OD1       12.9180   53.9760  135.6990 O.co2 141  ASP141     -0.2456
    151  OD2       12.6970   53.8400  133.5120 O.co2 141  ASP141     -0.2456
    152  N         16.3690   57.0380  138.8260 N.3   146  THR146     -0.1218
    153  CA        15.2530   56.6740  139.6840 C.3   146  THR146      0.1862
    154  C         15.6690   56.2260  141.0960 C.2   146  THR146      0.2287
    155  O         15.1280   56.7200  142.0830 O.2   146  THR146     -0.2866
    156  CB        14.4330   55.5760  139.0120 C.3   146  THR146      0.1770
    157  OG1       15.2310   54.9590  137.9880 O.3   146  THR146     -0.2211
    158  CG2       13.1830   56.1610  138.3790 C.3   146  THR146      0.0375
    159  N         -2.4430   44.1980  124.9690 N.3   260  HIS260     -0.1241
    160  CA        -1.1380   43.7820  125.4720 C.3   260  HIS260      0.1621
    161  C         -1.2110   42.4180  126.1350 C.2   260  HIS260      0.2264
    162  O         -2.2190   42.0650  126.7280 O.2   260  HIS260     -0.2867
    163  CB        -0.6190   44.7700  126.5250 C.3   260  HIS260      0.0745
    164  CG        -0.4040   46.1560  126.0110 C.ar  260  HIS260      0.0817
    165  ND1       -0.6660   47.2750  126.7700 N.ar  260  HIS260     -0.2268
    166  CD2        0.0450   46.6060  124.8170 C.ar  260  HIS260      0.1154
    167  CE1       -0.3920   48.3560  126.0630 C.ar  260  HIS260      0.1986
    168  NE2        0.0410   47.9770  124.8730 N.ar  260  HIS260     -0.2212
    169  N         -4.1220   42.3010  128.5590 N.3   476  ARG476     -0.1245
    170  CA        -4.3430   43.5880  129.1870 C.3   476  ARG476      0.1563
    171  C         -4.9460   44.4790  128.1110 C.2   476  ARG476      0.2260
    172  O         -4.2750   44.8700  127.1560 O.2   476  ARG476     -0.2867
    173  CB        -3.0220   44.1740  129.6950 C.3   476  ARG476      0.0307
    174  CG        -3.1630   45.2670  130.7690 C.3   476  ARG476      0.0489
    175  CD        -3.5670   46.6480  130.2210 C.3   476  ARG476      0.2205
    176  NE        -2.4350   47.4370  129.7150 N.pl3 476  ARG476     -0.0865
    177  CZ        -2.5340   48.6840  129.2470 C.cat 476  ARG476      0.5346
    178  NH1       -3.7120   49.2960  129.2160 N.pl3 476  ARG476      0.1354
    179  NH2       -1.4560   49.3250  128.8040 N.pl3 476  ARG476      0.1354
    180  N          1.7430   54.0330  121.8710 N.3   643  ASP643     -0.1225
    181  CA         1.9900   52.8890  122.7180 C.3   643  ASP643      0.1805
    182  C          3.5070   52.8190  122.7690 C.2   643  ASP643      0.2598
    183  O          4.1310   51.9970  122.1000 O.2   643  ASP643     -0.2718
    184  CB         1.3940   51.6250  122.1030 C.3   643  ASP643      0.1424
    185  CG         1.6070   50.4000  122.9770 C.2   643  ASP643      0.3668
    186  OD1        1.5290   50.5440  124.2200 O.co2 643  ASP643     -0.2456
    187  OD2        1.8410   49.2960  122.4270 O.co2 643  ASP643     -0.2456
    188  N          4.0900   53.7150  123.5550 N.am  644  VAL644     -0.1966
    189  CA         5.5370   53.8110  123.6850 C.3   644  VAL644      0.1727
    190  C          6.0190   53.3400  125.0590 C.2   644  VAL644      0.2616
    191  O          5.5040   53.7820  126.0830 O.2   644  VAL644     -0.2715
    192  CB         5.9770   55.2630  123.4690 C.3   644  VAL644      0.0290
    193  CG1        7.4720   55.3990  123.7010 C.3   644  VAL644      0.0023
    194  CG2        5.6180   55.6910  122.0730 C.3   644  VAL644      0.0023
    195  N          7.0250   52.4660  125.0700 N.am  645  TRP645     -0.1974
    196  CA         7.5700   51.9070  126.3070 C.3   645  TRP645      0.1640
    197  C          9.0890   52.0600  126.4310 C.2   645  TRP645      0.2290
    198  O          9.7030   52.7250  125.5730 O.2   645  TRP645     -0.2864
    199  CB         7.2110   50.4250  126.3900 C.3   645  TRP645      0.0576
    200  CG         7.9630   49.5900  125.4000 C.ar  645  TRP645      0.0006
    201  CD1        9.2530   49.1490  125.5060 C.ar  645  TRP645      0.0946
    202  CD2        7.4870   49.1360  124.1360 C.ar  645  TRP645      0.0152
    203  NE1        9.6070   48.4490  124.3840 N.ar  645  TRP645     -0.2442
    204  CE2        8.5420   48.4260  123.5240 C.ar  645  TRP645      0.0810
    205  CE3        6.2690   49.2570  123.4620 C.ar  645  TRP645      0.0012
    206  CZ2        8.4170   47.8390  122.2640 C.ar  645  TRP645      0.0191
    207  CZ3        6.1360   48.6720  122.2130 C.ar  645  TRP645      0.0001
    208  CH2        7.2050   47.9700  121.6230 C.ar  645  TRP645      0.0015
@<TRIPOS>BOND
     1   208   207   ar
     2   208   206   ar
     3   180   181    1
     4   194   192    1
     5   183   182    2
     6   184   181    1
     7   184   185    1
     8   207   205   ar
     9   206   204   ar
    10   187   185   ar
    11   181   182    1
    12   182   188   am
    13   113   111   ar
    14   185   186   ar
    15   205   202   ar
    16   192   189    1
    17   192   193    1
    18   204   202   ar
    19   204   203   ar
    20   188   189    1
    21   189   190    1
    22   111   112   ar
    23   111   110    1
    24   202   200   ar
    25   203   201   ar
    26   166   168   ar
    27   166   164   ar
    28   110   109    1
    29   168   167   ar
    30   159   160    1
    31   190   195   am
    32   190   191    2
    33   195   196    1
    34   200   201   ar
    35   200   199    1
    36   160   161    1
    37   160   163    1
    38   198   197    2
    39   164   163    1
    40   164   165   ar
    41   167   165   ar
    42   161   162    2
    43   109   106    1
    44   196   199    1
    45   196   197    1
    46   105   106    1
    47   105    95   am
    48   172   171    2
    49   122   124   ar
    50   122   120   ar
    51   106   107    1
    52   102   100   ar
    53   102   103   ar
    54   100    98   ar
    55   124   123   ar
    56    94    95    1
    57    94    93    1
    58    94    97    1
    59    95    96    2
    60   120   119   ar
    61   171   170    1
    62   103   104    1
    63   103   101   ar
    64    98    97    1
    65    98    99   ar
    66    72    70   ar
    67   107   108    2
    68   107   114   am
    69   169   170    1
    70    69    68    1
    71    69    70    1
    72   123   121   ar
    73   179   177    1
    74   101    99   ar
    75    63    62    2
    76    68    65    1
    77    62    61    1
    78    62    64   am
    79    61    60    1
    80    64    65    1
    81   170   173    1
    82    65    66    1
    83   178   177    1
    84   177   176    2
    85    70    71   ar
    86   119   121   ar
    87   119   118    1
    88   114   115    1
    89   173   174    1
    90   176   175    1
    91    60    50   am
    92   175   174    1
    93    91    90    2
    94   118   115    1
    95    66    67    2
    96   115   116    1
    97    92    90   am
    98    90    89    1
    99    88    87    2
   100    50    51    2
   101    50    49    1
   102   116   125   am
   103   116   117    2
   104   125   126    1
   105    87    86    1
   106    89    86    1
   107    49    52    1
   108    49    48    1
   109    55    57   ar
   110    55    53   ar
   111   129   126    1
   112   129   130    1
   113   126   127    1
   114    52    53    1
   115    86    85    1
   116    57    58   ar
   117   147   146    2
   118    53    54   ar
   119   146   145    1
   120   151   149   ar
   121    48    43   am
   122   130   132   ar
   123   130   131   ar
   124    44    43    2
   125    85    83   am
   126    47    45    1
   127   132   134   ar
   128   127   136   am
   129   127   128    2
   130    43    42    1
   131    58    59    1
   132    58    56   ar
   133   131   133   ar
   134    54    56   ar
   135   148   149    1
   136   148   145    1
   137    21    20    1
   138    12    13    1
   139    12    11    1
   140   149   150   ar
   141   136   137    1
   142   145   144    1
   143    13    14    2
   144    13    15   am
   145    83    84    2
   146    83    82    1
   147   134   135   ar
   148    45    42    1
   149    45    46    1
   150    42    41    1
   151   133   135   ar
   152    82    81    1
   153    11     8    1
   154    20    22    1
   155    20    17    1
   156   137   138    1
   157   137   140    1
   158   138   139    2
   159    41    37   am
   160    17    16    1
   161    17    18    1
   162    16     9   am
   163   140   141    1
   164    10     9    2
   165     9     8    1
   166    81    75   am
   167     8     7    1
   168    76    75    2
   169    37    38    2
   170    37    36    1
   171    75    74    1
   172   143   141   am
   173   157   156    1
   174   141   142    2
   175    18    19    2
   176     7     3   am
   177    39    36    1
   178    39    40    1
   179   158   156    1
   180    28    27    1
   181    36    35    1
   182   152   153    1
   183   156   153    1
   184    74    77    1
   185    74    73    1
   186     3     4    2
   187     3     2    1
   188    27    29    1
   189    27    24    1
   190    77    78    1
   191   153   154    1
   192    23    24    1
   193     2     5    1
   194     2     1    1
   195     6     5    1
   196    24    25    1
   197    80    78    1
   198    78    79    1
   199   154   155    2
   200    30    25   am
   201    30    31    1
   202    25    26    2
   203    34    31    1
   204    31    32    1
   205    32    33    2
