@<TRIPOS>MOLECULE
tmp/2bf4A03.pdb
 202 195 0 0 0
SMALL
GASTEIGER

@<TRIPOS>ATOM
      1  N         15.1170   37.5220  113.4380 N.3   234  PHE234     -0.1241
      2  CA        16.3470   38.1440  112.9850 C.3   234  PHE234      0.1605
      3  C         17.2740   37.1390  112.3290 C.2   234  PHE234      0.2264
      4  O         17.0280   35.9330  112.3520 O.2   234  PHE234     -0.2867
      5  CB        17.0740   38.8400  114.1370 C.3   234  PHE234      0.0534
      6  CG        16.4280   40.1190  114.5760 C.ar  234  PHE234     -0.0203
      7  CD1       16.9960   40.8850  115.5860 C.ar  234  PHE234     -0.0042
      8  CD2       15.2510   40.5620  113.9850 C.ar  234  PHE234     -0.0042
      9  CE1       16.3990   42.0680  115.9940 C.ar  234  PHE234     -0.0003
     10  CE2       14.6550   41.7370  114.3880 C.ar  234  PHE234     -0.0003
     11  CZ        15.2250   42.4910  115.3890 C.ar  234  PHE234     -0.0000
     12  N         22.3930   39.6490  117.7280 N.3   239  ARG239     -0.1245
     13  CA        21.0920   39.8900  118.3070 C.3   239  ARG239      0.1563
     14  C         20.0180   38.9490  117.8050 C.2   239  ARG239      0.2260
     15  O         20.1070   38.4030  116.7060 O.2   239  ARG239     -0.2867
     16  CB        20.6780   41.3560  118.1170 C.3   239  ARG239      0.0307
     17  CG        21.4370   42.0920  117.0350 C.3   239  ARG239      0.0489
     18  CD        21.4300   43.5920  117.2780 C.3   239  ARG239      0.2205
     19  NE        20.0890   44.1700  117.3180 N.pl3 239  ARG239     -0.0865
     20  CZ        19.4190   44.5910  116.2520 C.cat 239  ARG239      0.5346
     21  NH1       19.9580   44.5000  115.0440 N.pl3 239  ARG239      0.1354
     22  NH2       18.2080   45.1180  116.3960 N.pl3 239  ARG239      0.1354
     23  N         12.1210   41.1990  121.1670 N.3   413  ILE413     -0.1245
     24  CA        13.5160   41.2570  120.8040 C.3   413  ILE413      0.1561
     25  C         14.2360   40.8630  122.0870 C.2   413  ILE413      0.2260
     26  O         13.9230   41.3640  123.1690 O.2   413  ILE413     -0.2867
     27  CB        13.9030   42.6760  120.3580 C.3   413  ILE413      0.0252
     28  CG1       15.3740   42.7230  119.9690 C.3   413  ILE413      0.0019
     29  CG2       13.6080   43.6620  121.4600 C.3   413  ILE413      0.0019
     30  CD1       15.8000   44.0510  119.3890 C.3   413  ILE413      0.0001
     31  N         16.8690   40.6410  124.9870 N.3   415  GLU415     -0.1245
     32  CA        17.8020   41.5420  125.6600 C.3   415  GLU415      0.1567
     33  C         19.0040   40.7360  126.1480 C.2   415  GLU415      0.2260
     34  O         18.8790   39.8590  127.0020 O.2   415  GLU415     -0.2867
     35  CB        17.1200   42.2480  126.8390 C.3   415  GLU415      0.0388
     36  CG        16.0200   43.2160  126.4090 C.3   415  GLU415      0.1160
     37  CD        16.5420   44.5370  125.8360 C.2   415  GLU415      0.3649
     38  OE1       17.4510   44.5340  124.9780 O.co2 415  GLU415     -0.2457
     39  OE2       16.0230   45.5960  126.2400 O.co2 415  GLU415     -0.2457
     40  N         12.6920   37.6980  127.8640 N.3   433  THR433     -0.1218
     41  CA        13.1200   37.5430  126.4710 C.3   433  THR433      0.1862
     42  C         14.0810   36.3750  126.2240 C.2   433  THR433      0.2287
     43  O         13.9790   35.6900  125.2110 O.2   433  THR433     -0.2866
     44  CB        13.7130   38.8790  125.9250 C.3   433  THR433      0.1770
     45  OG1       14.9380   39.2020  126.5970 O.3   433  THR433     -0.2211
     46  CG2       12.7250   40.0050  126.1560 C.3   433  THR433      0.0375
     47  N          9.1680   52.0470  115.0110 N.3   495  PRO495     -0.2102
     48  CA        10.5430   51.5980  114.7830 C.3   495  PRO495      0.1504
     49  C         10.7780   50.2950  115.5350 C.2   495  PRO495      0.2576
     50  O         10.2380   50.1010  116.6240 O.2   495  PRO495     -0.2718
     51  CB        11.3770   52.7470  115.3400 C.3   495  PRO495      0.0282
     52  CG        10.4360   53.9220  115.3130 C.3   495  PRO495      0.0208
     53  CD         9.1570   53.3130  115.7590 C.3   495  PRO495      0.0893
     54  N         11.5770   49.4060  114.9510 N.am  496  GLY496     -0.1943
     55  CA        11.8800   48.1420  115.5950 C.3   496  GLY496      0.2014
     56  C         10.6460   47.3610  115.9800 C.2   496  GLY496      0.2639
     57  O          9.6760   47.3210  115.2270 O.2   496  GLY496     -0.2714
     58  N         10.6720   46.7450  117.1580 N.am  497  THR497     -0.1950
     59  CA         9.5430   45.9490  117.6180 C.3   497  THR497      0.1897
     60  C          8.2760   46.7800  117.7510 C.2   497  THR497      0.2313
     61  O          7.1960   46.2440  118.0110 O.2   497  THR497     -0.2863
     62  CB         9.8480   45.2920  118.9750 C.3   497  THR497      0.1794
     63  OG1       10.2640   46.2940  119.9090 O.3   497  THR497     -0.2208
     64  CG2       10.9480   44.2650  118.8310 C.3   497  THR497      0.0378
     65  N         11.2840   51.0670  110.8720 N.3   533  GLY533     -0.1210
     66  CA        12.7090   51.3400  110.9220 C.3   533  GLY533      0.1956
     67  C         13.4890   50.2540  111.6420 C.2   533  GLY533      0.2613
     68  O         12.9760   49.6160  112.5540 O.2   533  GLY533     -0.2717
     69  N         14.7330   50.0440  111.2340 N.am  534  SER534     -0.1938
     70  CA        15.5910   49.0450  111.8540 C.3   534  SER534      0.2055
     71  C         17.0330   49.3210  111.4440 C.2   534  SER534      0.2642
     72  O         17.2880   50.0980  110.5250 O.2   534  SER534     -0.2714
     73  CB        15.1880   47.6610  111.3880 C.3   534  SER534      0.2130
     74  OG        15.3680   47.5620  109.9900 O.3   534  SER534     -0.2179
     75  N         17.9780   48.6740  112.1140 N.am  535  ARG535     -0.1977
     76  CA        19.3960   48.8740  111.8170 C.3   535  ARG535      0.1597
     77  C         19.7950   48.5370  110.3880 C.2   535  ARG535      0.2287
     78  O         20.2720   49.3910  109.6450 O.2   535  ARG535     -0.2864
     79  CB        20.2520   48.0320  112.7580 C.3   535  ARG535      0.0334
     80  CG        20.0190   48.2950  114.2110 C.3   535  ARG535      0.0492
     81  CD        21.0330   47.5450  115.0300 C.3   535  ARG535      0.2205
     82  NE        20.8400   47.7850  116.4530 N.pl3 535  ARG535     -0.0865
     83  CZ        21.6530   47.3360  117.3980 C.cat 535  ARG535      0.5346
     84  NH1       22.7220   46.6200  117.0620 N.pl3 535  ARG535      0.1354
     85  NH2       21.3950   47.6040  118.6730 N.pl3 535  ARG535      0.1354
     86  N         17.7040   42.7160  110.7940 N.3   539  ASP539     -0.1239
     87  CA        16.6940   42.9480  111.8180 C.3   539  ASP539      0.1674
     88  C         15.4320   43.5160  111.1970 C.2   539  ASP539      0.2266
     89  O         14.6840   44.2550  111.8370 O.2   539  ASP539     -0.2867
     90  CB        17.2250   43.8640  112.9480 C.3   539  ASP539      0.1410
     91  CG        17.4980   45.3030  112.5020 C.2   539  ASP539      0.3668
     92  OD1       17.3940   45.6060  111.2940 O.co2 539  ASP539     -0.2456
     93  OD2       17.8230   46.1360  113.3840 O.co2 539  ASP539     -0.2456
     94  N         18.9270   52.6330  110.1650 N.3   564  SER564     -0.1202
     95  CA        19.8620   53.4550  110.9130 C.3   564  SER564      0.2020
     96  C         21.2950   52.9930  110.9130 C.2   564  SER564      0.2618
     97  O         22.1800   53.7660  111.2890 O.2   564  SER564     -0.2717
     98  CB        19.4050   53.5750  112.3600 C.3   564  SER564      0.2103
     99  OG        19.4890   52.3180  113.0040 O.3   564  SER564     -0.2182
    100  N         21.5410   51.7520  110.5020 N.am  565  ARG565     -0.1979
    101  CA        22.9040   51.2530  110.5210 C.3   565  ARG565      0.1597
    102  C         23.4580   50.6140  109.2530 C.2   565  ARG565      0.2287
    103  O         24.4290   49.8540  109.3140 O.2   565  ARG565     -0.2864
    104  CB        23.0730   50.3070  111.7050 C.3   565  ARG565      0.0334
    105  CG        22.5660   50.9030  113.0010 C.3   565  ARG565      0.0492
    106  CD        23.1290   50.2320  114.2390 C.3   565  ARG565      0.2205
    107  NE        22.5230   50.7770  115.4540 N.pl3 565  ARG565     -0.0865
    108  CZ        22.9640   50.5620  116.6950 C.cat 565  ARG565      0.5346
    109  NH1       24.0360   49.8080  116.9070 N.pl3 565  ARG565      0.1354
    110  NH2       22.3260   51.0920  117.7320 N.pl3 565  ARG565      0.1354
    111  N         22.6250   57.5730  109.0150 N.3   571  LYS571     -0.1231
    112  CA        21.5930   57.0130  109.8750 C.3   571  LYS571      0.1693
    113  C         20.2170   57.6420  109.6210 C.2   571  LYS571      0.2592
    114  O         20.0440   58.8650  109.7090 O.2   571  LYS571     -0.2718
    115  CB        21.9980   57.2210  111.3360 C.3   571  LYS571      0.0285
    116  CG        21.0030   56.7170  112.3440 C.3   571  LYS571      0.0035
    117  CD        21.4440   57.0510  113.7580 C.3   571  LYS571      0.0206
    118  CE        22.6380   56.2140  114.1990 C.3   571  LYS571      0.1093
    119  NZ        22.3070   54.7670  114.2700 N.3   571  LYS571     -0.1314
    120  N         19.2350   56.7980  109.3170 N.am  572  VAL572     -0.1966
    121  CA        17.8770   57.2680  109.0540 C.3   572  VAL572      0.1727
    122  C         16.8280   56.7550  110.0500 C.2   572  VAL572      0.2616
    123  O         16.7450   55.5630  110.3260 O.2   572  VAL572     -0.2715
    124  CB        17.4290   56.9070  107.6030 C.3   572  VAL572      0.0290
    125  CG1       15.9630   57.2220  107.4000 C.3   572  VAL572      0.0023
    126  CG2       18.2560   57.6820  106.6080 C.3   572  VAL572      0.0023
    127  N         16.0330   57.6750  110.5880 N.am  573  TYR573     -0.1960
    128  CA        14.9720   57.3400  111.5400 C.3   573  TYR573      0.1771
    129  C         13.5990   57.5340  110.9010 C.2   573  TYR573      0.2619
    130  O         13.4720   58.1680  109.8540 O.2   573  TYR573     -0.2715
    131  CB        15.0440   58.2310  112.7890 C.3   573  TYR573      0.0574
    132  CG        16.1430   57.8830  113.7670 C.ar  573  TYR573     -0.0198
    133  CD1       16.3910   58.6910  114.8790 C.ar  573  TYR573     -0.0009
    134  CD2       16.9300   56.7410  113.5900 C.ar  573  TYR573     -0.0009
    135  CE1       17.3930   58.3730  115.7880 C.ar  573  TYR573      0.0417
    136  CE2       17.9330   56.4100  114.4940 C.ar  573  TYR573      0.0417
    137  CZ        18.1610   57.2280  115.5900 C.ar  573  TYR573      0.1957
    138  OH        19.1430   56.8880  116.4900 O.3   573  TYR573     -0.2866
    139  N         12.5620   57.0080  111.5390 N.am  574  VAL574     -0.1963
    140  CA        11.2320   57.1580  110.9790 C.3   574  VAL574      0.1727
    141  C         10.7760   58.6150  110.9160 C.2   574  VAL574      0.2616
    142  O          9.9750   58.9730  110.0520 O.2   574  VAL574     -0.2715
    143  CB        10.1950   56.3380  111.7540 C.3   574  VAL574      0.0290
    144  CG1       10.4930   54.8580  111.5790 C.3   574  VAL574      0.0023
    145  CG2       10.1950   56.7440  113.2160 C.3   574  VAL574      0.0023
    146  N         11.2780   59.4580  111.8190 N.am  575  GLN575     -0.1977
    147  CA        10.8980   60.8660  111.7990 C.3   575  GLN575      0.1601
    148  C         11.5050   61.5410  110.5950 C.2   575  GLN575      0.2287
    149  O         10.9480   62.4900  110.0550 O.2   575  GLN575     -0.2864
    150  CB        11.3300   61.6030  113.0680 C.3   575  GLN575      0.0394
    151  CG        12.6740   61.2250  113.6020 C.3   575  GLN575      0.0908
    152  CD        12.5770   60.1370  114.6350 C.2   575  GLN575      0.2608
    153  OE1       13.0920   60.2660  115.7460 O.2   575  GLN575     -0.2717
    154  NE2       11.9050   59.0520  114.2790 N.am  575  GLN575     -0.0878
    155  N          9.6820   51.2160  121.5580 N.3   600  ASP600     -0.1225
    156  CA        10.4500   51.5970  122.7370 C.3   600  ASP600      0.1805
    157  C         10.9230   53.0300  122.5760 C.2   600  ASP600      0.2598
    158  O         10.3160   53.9540  123.1310 O.2   600  ASP600     -0.2718
    159  CB        11.6510   50.6730  122.9280 C.3   600  ASP600      0.1424
    160  CG        12.5040   51.0870  124.1070 C.2   600  ASP600      0.3668
    161  OD1       13.2030   52.1240  123.9960 O.co2 600  ASP600     -0.2456
    162  OD2       12.4570   50.3890  125.1460 O.co2 600  ASP600     -0.2456
    163  N         12.0340   53.2070  121.8620 N.am  601  ALA601     -0.1966
    164  CA        12.5530   54.5370  121.5510 C.3   601  ALA601      0.1728
    165  C         13.5590   55.3080  122.3890 C.2   601  ALA601      0.2616
    166  O         14.7380   55.3720  122.0240 O.2   601  ALA601     -0.2715
    167  CB        11.3830   55.4570  121.2550 C.3   601  ALA601      0.0334
    168  N         13.0760   55.9110  123.4830 N.am  602  LYS602     -0.1963
    169  CA        13.8890   56.7760  124.3360 C.3   602  LYS602      0.1728
    170  C         14.1950   57.8350  123.2960 C.2   602  LYS602      0.2617
    171  O         15.2180   57.7780  122.6230 O.2   602  LYS602     -0.2715
    172  CB        15.1930   56.1040  124.7740 C.3   602  LYS602      0.0311
    173  CG        16.0860   56.9990  125.6330 C.3   602  LYS602      0.0038
    174  CD        17.4360   56.3550  125.8910 C.3   602  LYS602      0.0206
    175  CE        18.2260   57.0980  126.9640 C.3   602  LYS602      0.1093
    176  NZ        19.4750   56.3580  127.3470 N.3   602  LYS602     -0.1314
    177  N         13.2750   58.7680  123.1190 N.am  603  GLY603     -0.1940
    178  CA        13.5050   59.7990  122.1370 C.3   603  GLY603      0.2014
    179  C         12.5000   59.7760  121.0120 C.2   603  GLY603      0.2638
    180  O         11.8460   60.7830  120.7620 O.2   603  GLY603     -0.2714
    181  N         12.3630   58.6300  120.3500 N.am  604  MET604     -0.1976
    182  CA        11.4560   58.4850  119.2130 C.3   604  MET604      0.1605
    183  C         10.0930   59.1060  119.4060 C.2   604  MET604      0.2287
    184  O          9.5630   59.7190  118.4880 O.2   604  MET604     -0.2864
    185  CB        11.3070   57.0060  118.8690 C.3   604  MET604      0.0413
    186  CG        10.4480   56.6900  117.6580 C.3   604  MET604      0.0598
    187  SD         8.7120   56.4140  118.0060 S.3   604  MET604     -0.1393
    188  CE         8.7850   55.0290  119.1180 C.3   604  MET604      0.0692
    189  N          7.0250   52.4660  125.0700 N.3   645  TRP645     -0.1241
    190  CA         7.5700   51.9070  126.3070 C.3   645  TRP645      0.1605
    191  C          9.0890   52.0600  126.4310 C.2   645  TRP645      0.2264
    192  O          9.7030   52.7250  125.5730 O.2   645  TRP645     -0.2867
    193  CB         7.2110   50.4250  126.3900 C.3   645  TRP645      0.0550
    194  CG         7.9630   49.5900  125.4000 C.ar  645  TRP645      0.0003
    195  CD1        9.2530   49.1490  125.5060 C.ar  645  TRP645      0.0946
    196  CD2        7.4870   49.1360  124.1360 C.ar  645  TRP645      0.0152
    197  NE1        9.6070   48.4490  124.3840 N.ar  645  TRP645     -0.2442
    198  CE2        8.5420   48.4260  123.5240 C.ar  645  TRP645      0.0810
    199  CE3        6.2690   49.2570  123.4620 C.ar  645  TRP645      0.0012
    200  CZ2        8.4170   47.8390  122.2640 C.ar  645  TRP645      0.0191
    201  CZ3        6.1360   48.6720  122.2130 C.ar  645  TRP645      0.0001
    202  CH2        7.2050   47.9700  121.6230 C.ar  645  TRP645      0.0015
@<TRIPOS>BOND
     1   126   124    1
     2   125   124    1
     3   124   121    1
     4   111   112    1
     5   121   120    1
     6   121   122    1
     7   102   103    2
     8   102   101    1
     9   120   113   am
    10   113   114    2
    11   113   112    1
    12    78    77    2
    13   130   129    2
    14   112   115    1
    15    74    73    1
    16   122   123    2
    17   122   127   am
    18   142   141    2
    19   149   148    2
    20    94    95    1
    21    77    76    1
    22   100   101    1
    23   100    96   am
    24   101   104    1
    25    72    71    2
    26   127   128    1
    27   148   147    1
    28    86    87    1
    29    65    66    1
    30   129   139   am
    31   129   128    1
    32    95    96    1
    33    95    98    1
    34    96    97    2
    35   141   140    1
    36   141   146   am
    37    66    67    1
    38   140   139    1
    39   140   143    1
    40    88    87    1
    41    88    89    2
    42    69    67   am
    43    69    70    1
    44    92    91   ar
    45   115   116    1
    46    73    70    1
    47    71    70    1
    48    71    75   am
    49   128   131    1
    50   144   143    1
    51    67    68    2
    52   104   105    1
    53   143   145    1
    54   147   146    1
    55   147   150    1
    56    76    75    1
    57    76    79    1
    58    87    90    1
    59     3     4    2
    60     3     2    1
    61   116   117    1
    62    98    99    1
    63    91    90    1
    64    91    93   ar
    65    79    80    1
    66   131   132    1
    67     2     1    1
    68     2     5    1
    69   105   106    1
    70   150   151    1
    71   134   132   ar
    72   134   136   ar
    73   151   152    1
    74   117   118    1
    75   132   133   ar
    76     8    10   ar
    77     8     6   ar
    78     5     6    1
    79   118   119    1
    80    80    81    1
    81   106   107    1
    82   154   152   am
    83    10    11   ar
    84   136   137   ar
    85     6     7   ar
    86   152   153    2
    87    48    47    1
    88    48    51    1
    89    48    49    1
    90   133   135   ar
    91    54    49   am
    92    54    55    1
    93    47    53    1
    94    81    82    1
    95    21    20    1
    96    57    56    2
    97    52    51    1
    98    52    53    1
    99    11     9   ar
   100   107   108    2
   101    49    50    2
   102     7     9   ar
   103   137   135   ar
   104   137   138    1
   105    55    56    1
   106    56    58   am
   107    20    22    1
   108    20    19    2
   109    82    83    2
   110   108   109    1
   111   108   110    1
   112    15    14    2
   113    17    18    1
   114    17    16    1
   115    84    83    1
   116    58    59    1
   117    18    19    1
   118    83    85    1
   119    59    60    1
   120    59    62    1
   121   186   187    1
   122   186   185    1
   123    12    13    1
   124    60    61    2
   125    14    13    1
   126   187   188    1
   127    16    13    1
   128   184   183    2
   129    64    62    1
   130   185   182    1
   131    62    63    1
   132   182   183    1
   133   182   181    1
   134    30    28    1
   135    28    27    1
   136   181   179   am
   137    27    24    1
   138    27    29    1
   139   180   179    2
   140    24    23    1
   141    24    25    1
   142   179   178    1
   143   167   164    1
   144   164   163    1
   145   164   165    1
   146   155   156    1
   147   202   201   ar
   148   202   200   ar
   149   163   157   am
   150   166   165    2
   151    25    26    2
   152   178   177    1
   153   201   199   ar
   154   200   198   ar
   155   165   168   am
   156   157   156    1
   157   157   158    2
   158   171   170    2
   159   156   159    1
   160   159   160    1
   161   177   170   am
   162   170   169    1
   163   199   196   ar
   164   168   169    1
   165   198   196   ar
   166   198   197   ar
   167   161   160   ar
   168   160   162   ar
   169   196   194   ar
   170   169   172    1
   171   197   195   ar
   172   172   173    1
   173    38    37   ar
   174    31    32    1
   175   189   190    1
   176    43    42    2
   177   194   195   ar
   178   194   193    1
   179   192   191    2
   180   173   174    1
   181    32    33    1
   182    32    35    1
   183    37    39   ar
   184    37    36    1
   185   174   175    1
   186    44    46    1
   187    44    41    1
   188    44    45    1
   189    33    34    2
   190    42    41    1
   191   190   193    1
   192   190   191    1
   193    36    35    1
   194    41    40    1
   195   175   176    1
