@<TRIPOS>MOLECULE
tmp/2bfaD01.pdb
 166 158 0 0 0
SMALL
GASTEIGER

@<TRIPOS>ATOM
      1  N          6.0500   62.4410   94.0820 N.3    12  ARG12      -0.1245
      2  CA         5.7900   61.1890   93.3930 C.3    12  ARG12       0.1563
      3  C          7.0490   60.3620   93.0910 C.2    12  ARG12       0.2260
      4  O          7.8010   60.0480   94.0020 O.2    12  ARG12      -0.2867
      5  CB         4.9130   61.4390   92.1720 C.3    12  ARG12       0.0307
      6  CG         3.5240   61.9750   92.5600 C.3    12  ARG12       0.0489
      7  CD         2.7720   62.6930   91.4450 C.3    12  ARG12       0.2205
      8  NE         2.6560   61.8620   90.2450 N.pl3  12  ARG12      -0.0865
      9  CZ         1.8760   60.7910   90.1410 C.cat  12  ARG12       0.5346
     10  NH1        1.0990   60.4250   91.1550 N.pl3  12  ARG12       0.1354
     11  NH2        1.8660   60.0890   89.0160 N.pl3  12  ARG12       0.1354
     12  N          8.9160   65.7390   83.8320 N.3    99  SER99      -0.1217
     13  CA         8.1560   65.4730   82.6170 C.3    99  SER99       0.1889
     14  C          6.7260   66.0050   82.6360 C.2    99  SER99       0.2288
     15  O          5.9510   65.6800   83.5290 O.2    99  SER99      -0.2866
     16  CB         8.1320   63.9600   82.3630 C.3    99  SER99       0.2089
     17  OG         7.0270   63.5780   81.5590 O.3    99  SER99      -0.2183
     18  N          2.8940   66.0750   81.0470 N.3   101  PHE101     -0.1241
     19  CA         2.0620   65.0320   80.4940 C.3   101  PHE101      0.1605
     20  C          0.6100   65.4810   80.3890 C.2   101  PHE101      0.2264
     21  O         -0.1130   65.5380   81.3880 O.2   101  PHE101     -0.2867
     22  CB         2.1930   63.7780   81.3580 C.3   101  PHE101      0.0534
     23  CG         1.2360   62.6860   81.0090 C.ar  101  PHE101     -0.0203
     24  CD1        1.4560   61.8820   79.9020 C.ar  101  PHE101     -0.0042
     25  CD2        0.1920   62.3740   81.8640 C.ar  101  PHE101     -0.0042
     26  CE1        0.6040   60.8250   79.6090 C.ar  101  PHE101     -0.0003
     27  CE2       -0.6590   61.3200   81.5880 C.ar  101  PHE101     -0.0003
     28  CZ        -0.4480   60.5370   80.4580 C.ar  101  PHE101     -0.0000
     29  N          8.8660   55.5430   79.2050 N.3   158  ASP158     -0.1239
     30  CA         7.4840   55.0620   79.3670 C.3   158  ASP158      0.1674
     31  C          7.3160   53.6800   78.7560 C.2   158  ASP158      0.2266
     32  O          7.4890   53.5070   77.5530 O.2   158  ASP158     -0.2867
     33  CB         6.5180   56.0500   78.7090 C.3   158  ASP158      0.1410
     34  CG         5.0660   55.7650   79.0320 C.2   158  ASP158      0.3668
     35  OD1        4.7070   54.5980   79.3170 O.co2 158  ASP158     -0.2456
     36  OD2        4.2000   56.6570   78.9820 O.co2 158  ASP158     -0.2456
     37  N          4.6810   52.0760   78.0580 N.3   160  MET160     -0.1245
     38  CA         3.4900   51.9240   77.2240 C.3   160  MET160      0.1570
     39  C          3.4250   52.7610   75.9420 C.2   160  MET160      0.2261
     40  O          2.4300   52.7040   75.2220 O.2   160  MET160     -0.2867
     41  CB         2.2280   52.1610   78.0560 C.3   160  MET160      0.0387
     42  CG         2.1080   51.2820   79.3030 C.3   160  MET160      0.0595
     43  SD         2.0890   49.4920   78.9370 S.3   160  MET160     -0.1393
     44  CE         0.6300   49.3740   77.8840 C.3   160  MET160      0.0692
     45  N          2.3810   51.4450   72.6150 N.3   163  GLN163     -0.1231
     46  CA         0.9550   51.2440   72.5320 C.3   163  GLN163      0.1683
     47  C          0.3600   52.5900   72.9490 C.2   163  GLN163      0.2434
     48  O         -0.2980   52.7010   73.9820 O.2   163  GLN163     -0.2733
     49  CB         0.5280   50.1410   73.4870 C.3   163  GLN163      0.0380
     50  CG         1.1840   48.7900   73.2040 C.3   163  GLN163      0.0905
     51  CD         1.2280   47.9000   74.4300 C.2   163  GLN163      0.2608
     52  OE1        2.1720   47.9660   75.2080 O.2   163  GLN163     -0.2717
     53  NE2        0.1930   47.0860   74.6170 N.am  163  GLN163     -0.0878
     54  N          0.5300   53.5830   72.0760 N.am  164  PRO164     -0.2718
     55  CA         0.2200   54.9790   72.3850 C.3   164  PRO164      0.1535
     56  C         -1.0950   55.2290   73.0860 C.2   164  PRO164      0.2598
     57  O         -2.1020   54.5600   72.8250 O.2   164  PRO164     -0.2715
     58  CB         0.2090   55.6410   71.0130 C.3   164  PRO164      0.0310
     59  CG         1.1010   54.8140   70.2090 C.3   164  PRO164      0.0237
     60  CD         0.8650   53.4050   70.6540 C.3   164  PRO164      0.0939
     61  N         -1.0660   56.2060   73.9860 N.am  165  LEU165     -0.1964
     62  CA        -2.2400   56.6400   74.7010 C.3   165  LEU165      0.1728
     63  C         -2.9460   57.6510   73.8100 C.2   165  LEU165      0.2616
     64  O         -2.3750   58.6760   73.4350 O.2   165  LEU165     -0.2715
     65  CB        -1.8370   57.2730   76.0380 C.3   165  LEU165      0.0311
     66  CG        -2.9300   57.6880   77.0260 C.3   165  LEU165      0.0022
     67  CD1       -3.7330   56.4890   77.5110 C.3   165  LEU165      0.0001
     68  CD2       -2.3100   58.4380   78.2020 C.3   165  LEU165      0.0001
     69  N         -4.1540   57.3010   73.3910 N.am  166  LEU166     -0.1977
     70  CA        -4.9550   58.1420   72.5160 C.3   166  LEU166      0.1596
     71  C         -4.9620   59.6200   72.9190 C.2   166  LEU166      0.2287
     72  O         -5.3600   59.9700   74.0350 O.2   166  LEU166     -0.2864
     73  CB        -6.3840   57.6170   72.4780 C.3   166  LEU166      0.0297
     74  CG        -7.2110   58.0180   71.2690 C.3   166  LEU166      0.0022
     75  CD1       -6.6660   57.3300   70.0270 C.3   166  LEU166      0.0001
     76  CD2       -8.6760   57.6580   71.5030 C.3   166  LEU166      0.0001
     77  N         -2.2510   61.7140   73.0240 N.3   168  TYR168     -0.1241
     78  CA        -1.0010   62.2060   73.6180 C.3   168  TYR168      0.1605
     79  C          0.2050   62.1200   72.6720 C.2   168  TYR168      0.2264
     80  O          1.3050   61.7530   73.0890 O.2   168  TYR168     -0.2867
     81  CB        -0.6980   61.4310   74.9040 C.3   168  TYR168      0.0534
     82  CG        -1.6120   61.7540   76.0500 C.ar  168  TYR168     -0.0201
     83  CD1       -2.9250   61.3100   76.0640 C.ar  168  TYR168     -0.0009
     84  CD2       -1.1540   62.4780   77.1380 C.ar  168  TYR168     -0.0009
     85  CE1       -3.7670   61.5920   77.1320 C.ar  168  TYR168      0.0417
     86  CE2       -1.9820   62.7660   78.2080 C.ar  168  TYR168      0.0417
     87  CZ        -3.2890   62.3260   78.1970 C.ar  168  TYR168      0.1957
     88  OH        -4.1190   62.6310   79.2440 O.3   168  TYR168     -0.2866
     89  N          3.6780   64.1180   73.6540 N.3   171  TYR171     -0.1241
     90  CA         4.2910   63.4470   74.7810 C.3   171  TYR171      0.1605
     91  C          4.8970   62.1360   74.3050 C.2   171  TYR171      0.2264
     92  O          6.0620   61.8570   74.5690 O.2   171  TYR171     -0.2867
     93  CB         3.2660   63.1810   75.8840 C.3   171  TYR171      0.0534
     94  CG         3.6840   62.0930   76.8450 C.ar  171  TYR171     -0.0201
     95  CD1        4.5210   62.3740   77.9200 C.ar  171  TYR171     -0.0009
     96  CD2        3.2800   60.7740   76.6520 C.ar  171  TYR171     -0.0009
     97  CE1        4.9340   61.3730   78.7910 C.ar  171  TYR171      0.0417
     98  CE2        3.6800   59.7630   77.5210 C.ar  171  TYR171      0.0417
     99  CZ         4.5060   60.0690   78.5880 C.ar  171  TYR171      0.1957
    100  OH         4.9010   59.0660   79.4500 O.3   171  TYR171     -0.2866
    101  N          8.8760   61.0720   74.3170 N.3   175  LYS175     -0.1245
    102  CA         9.3520   59.8680   74.9900 C.3   175  LYS175      0.1561
    103  C         10.1790   59.0160   74.0340 C.2   175  LYS175      0.2260
    104  O         11.2120   58.4560   74.4160 O.2   175  LYS175     -0.2867
    105  CB         8.1820   59.0680   75.5430 C.3   175  LYS175      0.0271
    106  CG         8.2060   58.8990   77.0520 C.3   175  LYS175      0.0035
    107  CD         8.5890   60.1860   77.7970 C.3   175  LYS175      0.0206
    108  CE         8.4960   59.9610   79.3090 C.3   175  LYS175      0.1093
    109  NZ         9.0280   61.0890   80.1220 N.3   175  LYS175     -0.1314
    110  N          4.8180   51.8530   83.8980 N.3   202  GLY202     -0.1210
    111  CA         3.6020   51.7230   83.1130 C.3   202  GLY202      0.1956
    112  C          2.5510   52.5630   83.7950 C.2   202  GLY202      0.2612
    113  O          2.2600   53.6800   83.3750 O.2   202  GLY202     -0.2717
    114  N          2.0100   52.0340   84.8850 N.am  203  LEU203     -0.1965
    115  CA         1.0720   52.7670   85.7160 C.3   203  LEU203      0.1728
    116  C          1.6470   52.8300   87.1300 C.2   203  LEU203      0.2616
    117  O          1.7790   51.8020   87.8040 O.2   203  LEU203     -0.2715
    118  CB        -0.3040   52.0900   85.7220 C.3   203  LEU203      0.0311
    119  CG        -0.9930   51.8900   84.3590 C.3   203  LEU203      0.0022
    120  CD1       -2.4320   51.3890   84.5200 C.3   203  LEU203      0.0001
    121  CD2       -0.9520   53.1640   83.5120 C.3   203  LEU203      0.0001
    122  N          2.0670   54.0270   87.5430 N.am  204  SER204     -0.1950
    123  CA         2.6340   54.2310   88.8800 C.3   204  SER204      0.1924
    124  C          1.8970   55.3210   89.6260 C.2   204  SER204      0.2314
    125  O          1.6770   56.4120   89.0930 O.2   204  SER204     -0.2863
    126  CB         4.1220   54.5800   88.8040 C.3   204  SER204      0.2116
    127  OG         4.8700   53.4840   88.3150 O.3   204  SER204     -0.2180
    128  N         -1.2730   56.1310   90.5690 N.3   206  LEU206     -0.1245
    129  CA        -2.3780   56.8290   89.9230 C.3   206  LEU206      0.1561
    130  C         -3.1730   57.5770   90.9840 C.2   206  LEU206      0.2260
    131  O         -3.6430   56.9830   91.9570 O.2   206  LEU206     -0.2867
    132  CB        -3.2860   55.8490   89.1750 C.3   206  LEU206      0.0270
    133  CG        -2.7730   55.2410   87.8650 C.3   206  LEU206      0.0019
    134  CD1       -3.9050   54.5130   87.1430 C.3   206  LEU206      0.0001
    135  CD2       -2.1420   56.3030   86.9570 C.3   206  LEU206      0.0001
    136  N         -8.7100   51.0430   85.0250 N.3   208  HIS208     -0.1241
    137  CA        -7.4120   51.1910   84.3640 C.3   208  HIS208      0.1621
    138  C         -6.3770   50.2420   84.9680 C.2   208  HIS208      0.2264
    139  O         -5.7540   49.4450   84.2570 O.2   208  HIS208     -0.2867
    140  CB        -6.9140   52.6400   84.4730 C.3   208  HIS208      0.0745
    141  CG        -7.7300   53.6500   83.8090 C.ar  208  HIS208      0.0817
    142  ND1       -8.9460   53.3410   83.2340 N.ar  208  HIS208     -0.2268
    143  CD2       -7.5160   54.9690   83.5700 C.ar  208  HIS208      0.1154
    144  CE1       -9.4490   54.4300   82.6760 C.ar  208  HIS208      0.1986
    145  NE2       -8.5990   55.4290   82.8650 N.ar  208  HIS208     -0.2212
    146  N         -6.3330   46.2940   84.6710 N.3   211  LYS211     -0.1245
    147  CA        -5.8410   45.7240   83.4180 C.3   211  LYS211      0.1561
    148  C         -4.3900   45.2670   83.5240 C.2   211  LYS211      0.2260
    149  O         -3.8890   44.5660   82.6480 O.2   211  LYS211     -0.2867
    150  CB        -5.9970   46.7240   82.2680 C.3   211  LYS211      0.0271
    151  CG        -7.4400   46.9670   81.8480 C.3   211  LYS211      0.0035
    152  CD        -8.3150   45.7480   82.1070 C.3   211  LYS211      0.0206
    153  CE        -9.7310   45.9730   81.5950 C.3   211  LYS211      0.1093
    154  NZ       -10.7250   46.0050   82.7070 N.3   211  LYS211     -0.1314
    155  N          2.0290   45.0910   81.9150 N.3   250  TYR250     -0.1241
    156  CA         1.0180   45.8630   81.2000 C.3   250  TYR250      0.1605
    157  C          1.2850   45.9470   79.6970 C.2   250  TYR250      0.2264
    158  O          0.3650   45.8280   78.8990 O.2   250  TYR250     -0.2867
    159  CB         0.8510   47.2630   81.8000 C.3   250  TYR250      0.0534
    160  CG        -0.4050   47.9810   81.3320 C.ar  250  TYR250     -0.0201
    161  CD1       -1.5410   47.2640   80.9530 C.ar  250  TYR250     -0.0009
    162  CD2       -0.4650   49.3750   81.2980 C.ar  250  TYR250     -0.0009
    163  CE1       -2.6980   47.9170   80.5290 C.ar  250  TYR250      0.0417
    164  CE2       -1.6120   50.0360   80.8850 C.ar  250  TYR250      0.0417
    165  CZ        -2.7260   49.3050   80.4970 C.ar  250  TYR250      0.1957
    166  OH        -3.8740   49.9600   80.0820 O.3   250  TYR250     -0.2866
@<TRIPOS>BOND
     1    75    74    1
     2    59    60    1
     3    59    58    1
     4    60    54    1
     5    58    55    1
     6    74    76    1
     7    74    73    1
     8    54    55    1
     9    54    47   am
    10    55    56    1
    11    73    70    1
    12    70    71    1
    13    70    69    1
    14    46    45    1
    15    46    47    1
    16    46    49    1
    17    79    80    2
    18    79    78    1
    19    57    56    2
    20    71    72    2
    21    47    48    2
    22    77    78    1
    23    56    61   am
    24    50    49    1
    25    50    51    1
    26    69    63   am
    27    64    63    2
    28    78    81    1
    29    89    90    1
    30    63    62    1
    31    61    62    1
    32   103   104    2
    33   103   102    1
    34    91    92    2
    35    91    90    1
    36   101   102    1
    37    51    53   am
    38    51    52    2
    39    62    65    1
    40    90    93    1
    41    81    82    1
    42   102   105    1
    43    40    39    2
    44   105   106    1
    45    93    94    1
    46    39    38    1
    47    65    66    1
    48    82    83   ar
    49    82    84   ar
    50    83    85   ar
    51    96    94   ar
    52    96    98   ar
    53    94    95   ar
    54    66    67    1
    55    66    68    1
    56   106   107    1
    57    85    87   ar
    58    84    86   ar
    59    38    41    1
    60    38    37    1
    61    98    99   ar
    62    32    31    2
    63   107   108    1
    64    44    43    1
    65    95    97   ar
    66    41    42    1
    67    87    86   ar
    68    87    88    1
    69    99    97   ar
    70    99   100    1
    71    33    34    1
    72    33    30    1
    73    31    30    1
    74   158   157    2
    75    43    42    1
    76    36    34   ar
    77    34    35   ar
    78    29    30    1
    79   108   109    1
    80    26    24   ar
    81    26    28   ar
    82   157   156    1
    83    24    23   ar
    84   166   165    1
    85    20    19    1
    86    20    21    2
    87    28    27   ar
    88    19    18    1
    89    19    22    1
    90   165   163   ar
    91   165   164   ar
    92   163   161   ar
    93   164   162   ar
    94   161   160   ar
    95    23    22    1
    96    23    25   ar
    97   156   159    1
    98   156   155    1
    99   162   160   ar
   100   160   159    1
   101    17    16    1
   102    27    25   ar
   103   153   152    1
   104   153   154    1
   105   151   152    1
   106   151   150    1
   107   150   147    1
   108    16    13    1
   109    13    14    1
   110    13    12    1
   111    14    15    2
   112   149   148    2
   113   144   145   ar
   114   144   142   ar
   115   145   143   ar
   116   111   112    1
   117   111   110    1
   118   142   141   ar
   119   113   112    2
   120   147   148    1
   121   147   146    1
   122   121   119    1
   123   143   141   ar
   124   112   114   am
   125   141   140    1
   126   139   138    2
   127   119   120    1
   128   119   118    1
   129   137   140    1
   130   137   138    1
   131   137   136    1
   132   114   115    1
   133   115   118    1
   134   115   116    1
   135   135   133    1
   136   116   122   am
   137   116   117    2
   138   134   133    1
   139   122   123    1
   140   133   132    1
   141   127   126    1
   142   126   123    1
   143   123   124    1
   144    11     9    1
   145   125   124    2
   146   132   129    1
   147   129   128    1
   148   129   130    1
   149     9     8    2
   150     9    10    1
   151     8     7    1
   152   130   131    2
   153     7     6    1
   154     5     6    1
   155     5     2    1
   156     3     2    1
   157     3     4    2
   158     2     1    1
