@<TRIPOS>MOLECULE
tmp/2bffA00.pdb
 157 151 0 0 0
SMALL
GASTEIGER

@<TRIPOS>ATOM
      1  N         75.5260   10.4630   -1.8000 N.3    82  MET82      -0.1245
      2  CA        74.3130    9.7700   -1.3800 C.3    82  MET82       0.1570
      3  C         73.2090   10.7340   -1.6760 C.2    82  MET82       0.2261
      4  O         73.2700   11.9000   -1.2230 O.2    82  MET82      -0.2867
      5  CB        74.3310    9.5020    0.1090 C.3    82  MET82       0.0387
      6  CG        75.5710    8.7360    0.6860 C.3    82  MET82       0.0595
      7  SD        75.3360    8.5820    2.4940 S.3    82  MET82      -0.1393
      8  CE        74.0420    7.3210    2.4370 C.3    82  MET82       0.0692
      9  N         71.6820   12.3630   10.2500 N.3   107  GLN107     -0.1231
     10  CA        72.2710   11.0710    9.9830 C.3   107  GLN107      0.1698
     11  C         73.2090   11.1420    8.7980 C.2   107  GLN107      0.2592
     12  O         74.3540   10.6330    8.8740 O.2   107  GLN107     -0.2718
     13  CB        71.1470   10.0240    9.7440 C.3   107  GLN107      0.0381
     14  CG        71.6540    8.6850    9.2350 C.3   107  GLN107      0.0905
     15  CD        70.7710    7.5130    9.5170 C.2   107  GLN107      0.2608
     16  OE1       70.5520    6.6720    8.6350 O.2   107  GLN107     -0.2717
     17  NE2       70.2880    7.4250   10.6770 N.am  107  GLN107     -0.0878
     18  N         72.6820   11.6880    7.6910 N.am  108  TYR108     -0.1962
     19  CA        73.3820   11.8730    6.3730 C.3   108  TYR108      0.1771
     20  C         72.3950   12.0580    5.2240 C.2   108  TYR108      0.2619
     21  O         72.7670   12.5160    4.1370 O.2   108  TYR108     -0.2715
     22  CB        74.4120   10.7600    5.9760 C.3   108  TYR108      0.0574
     23  CG        73.8340    9.3730    5.9870 C.ar  108  TYR108     -0.0198
     24  CD1       72.7230    9.0290    5.1990 C.ar  108  TYR108     -0.0009
     25  CD2       74.3940    8.4080    6.7780 C.ar  108  TYR108     -0.0009
     26  CE1       72.1460    7.7540    5.2750 C.ar  108  TYR108      0.0417
     27  CE2       73.8450    7.1270    6.8420 C.ar  108  TYR108      0.0417
     28  CZ        72.7280    6.8310    6.1150 C.ar  108  TYR108      0.1957
     29  OH        72.2540    5.5670    6.1870 O.3   108  TYR108     -0.2866
     30  N         71.1110   11.7820    5.4610 N.am  109  ARG109     -0.1977
     31  CA        70.1990   11.8740    4.3250 C.3   109  ARG109      0.1597
     32  C         69.1080   12.8720    4.6560 C.2   109  ARG109      0.2287
     33  O         67.9040   12.5570    4.4700 O.2   109  ARG109     -0.2864
     34  CB        69.6660   10.4680    3.9200 C.3   109  ARG109      0.0334
     35  CG        69.3550   10.3070    2.4520 C.3   109  ARG109      0.0492
     36  CD        68.4900    9.1050    2.1140 C.3   109  ARG109      0.2205
     37  NE        69.1550    7.8480    2.4170 N.pl3 109  ARG109     -0.0865
     38  CZ        69.9740    7.2190    1.6030 C.cat 109  ARG109      0.5346
     39  NH1       70.3390    7.7290    0.4080 N.pl3 109  ARG109      0.1354
     40  NH2       70.4830    6.0360    1.9330 N.pl3 109  ARG109      0.1354
     41  N         79.6700    9.5110   10.3530 N.3   157  SER157     -0.1203
     42  CA        79.2160    8.2400    9.8090 C.3   157  SER157      0.2005
     43  C         78.5670    7.2510   10.8170 C.2   157  SER157      0.2461
     44  O         77.4960    6.6420   10.5260 O.2   157  SER157     -0.2732
     45  CB        80.4030    7.5450    9.1650 C.3   157  SER157      0.2103
     46  OG        79.9650    6.4350    8.4830 O.3   157  SER157     -0.2182
     47  N         79.1850    7.0400   11.9820 N.am  158  PRO158     -0.2717
     48  CA        78.6050    6.0250   12.8950 C.3   158  PRO158      0.1535
     49  C         77.1290    6.2510   13.1810 C.2   158  PRO158      0.2598
     50  O         76.7800    7.3430   13.6620 O.2   158  PRO158     -0.2715
     51  CB        79.4280    6.1830   14.1780 C.3   158  PRO158      0.0310
     52  CG        80.7970    6.7120   13.6410 C.3   158  PRO158      0.0237
     53  CD        80.3510    7.7380   12.6020 C.3   158  PRO158      0.0939
     54  N         76.2800    5.2780   12.8400 N.am  159  LEU159     -0.1978
     55  CA        74.8510    5.5090   12.9350 C.3   159  LEU159      0.1596
     56  C         74.3890    5.6030   14.3710 C.2   159  LEU159      0.2287
     57  O         74.8600    4.9050   15.2580 O.2   159  LEU159     -0.2864
     58  CB        74.1160    4.3040   12.3110 C.3   159  LEU159      0.0297
     59  CG        74.2890    4.2450   10.7960 C.3   159  LEU159      0.0022
     60  CD1       73.8320    2.9360   10.2380 C.3   159  LEU159      0.0001
     61  CD2       73.5430    5.3600   10.0500 C.3   159  LEU159      0.0001
     62  N         67.4580    7.1460   10.4920 N.3   187  GLY187     -0.1210
     63  CA        66.6600    6.1930    9.7370 C.3   187  GLY187      0.1956
     64  C         66.1940    4.9830   10.5450 C.2   187  GLY187      0.2612
     65  O         66.5480    4.8200   11.7410 O.2   187  GLY187     -0.2717
     66  N         65.3260    4.1680    9.9370 N.am  188  GLU188     -0.1965
     67  CA        64.7380    3.0580   10.7170 C.3   188  GLU188      0.1733
     68  C         65.7810    2.0010   11.0010 C.2   188  GLU188      0.2617
     69  O         65.6340    1.2580   12.0070 O.2   188  GLU188     -0.2715
     70  CB        63.4950    2.4810   10.0370 C.3   188  GLU188      0.0429
     71  CG        63.7220    1.3980    8.9750 C.3   188  GLU188      0.1163
     72  CD        64.4830    1.8640    7.6930 C.2   188  GLU188      0.3649
     73  OE1       64.4650    3.0850    7.3930 O.co2 188  GLU188     -0.2457
     74  OE2       65.1690    0.9630    7.0720 O.co2 188  GLU188     -0.2457
     75  N         66.7950    1.8460   10.1510 N.am  189  GLY189     -0.1940
     76  CA        67.9110    0.9800   10.4390 C.3   189  GLY189      0.2014
     77  C         68.6770    1.4750   11.6430 C.2   189  GLY189      0.2638
     78  O         68.9760    0.7160   12.6250 O.2   189  GLY189     -0.2714
     79  N         69.0390    2.7560   11.6240 N.am  190  ALA190     -0.1977
     80  CA        69.8060    3.2920   12.7850 C.3   190  ALA190      0.1597
     81  C         69.0620    3.1350   14.0940 C.2   190  ALA190      0.2287
     82  O         69.6970    3.0760   15.1430 O.2   190  ALA190     -0.2864
     83  CB        70.1060    4.7970   12.5000 C.3   190  ALA190      0.0319
     84  N         70.1160    0.6070   16.6960 N.3   193  GLU193     -0.1245
     85  CA        71.3420    0.6760   17.4860 C.3   193  GLU193      0.1567
     86  C         71.0130    0.9240   18.9710 C.2   193  GLU193      0.2260
     87  O         69.9930    1.5250   19.3240 O.2   193  GLU193     -0.2867
     88  CB        72.1530    1.9030   16.9890 C.3   193  GLU193      0.0388
     89  CG        72.8420    1.6610   15.6210 C.3   193  GLU193      0.1160
     90  CD        74.0080    0.6920   15.6830 C.2   193  GLU193      0.3649
     91  OE1       74.2400   -0.0160   16.6800 O.co2 193  GLU193     -0.2457
     92  OE2       74.7610    0.6470   14.5930 O.co2 193  GLU193     -0.2457
     93  N         63.1060    8.6760    9.6850 N.3   215  ARG215     -0.1245
     94  CA        62.6840    8.4530    8.2930 C.3   215  ARG215      0.1563
     95  C         62.6280    6.9380    8.0640 C.2   215  ARG215      0.2260
     96  O         63.6820    6.2690    8.1030 O.2   215  ARG215     -0.2867
     97  CB        63.7700    8.9710    7.3240 C.3   215  ARG215      0.0307
     98  CG        64.0200   10.4980    7.2880 C.3   215  ARG215      0.0489
     99  CD        65.1810   10.9050    6.2380 C.3   215  ARG215      0.2205
    100  NE        66.4410   10.3520    6.7430 N.pl3 215  ARG215     -0.0865
    101  CZ        66.9980    9.2050    6.3280 C.cat 215  ARG215      0.5346
    102  NH1       66.4210    8.4540    5.3380 N.pl3 215  ARG215      0.1354
    103  NH2       68.1640    8.8140    6.9360 N.pl3 215  ARG215      0.1354
    104  N         62.1290    4.4040    5.4210 N.3   217  ASN217     -0.1240
    105  CA        62.1200    4.3570    3.9380 C.3   217  ASN217      0.1653
    106  C         62.1970    2.9210    3.4690 C.2   217  ASN217      0.2266
    107  O         62.4940    2.7640    2.2480 O.2   217  ASN217     -0.2867
    108  CB        63.2250    5.2550    3.3440 C.3   217  ASN217      0.1155
    109  CG        64.6060    4.6920    3.6230 C.2   217  ASN217      0.2627
    110  OD1       64.6940    3.6020    4.3410 O.2   217  ASN217     -0.2716
    111  ND2       65.6650    5.4470    3.3150 N.am  217  ASN217     -0.0877
    112  N         64.1420    0.3320    3.9120 N.3   219  TYR219     -0.1227
    113  CA        65.4150   -0.4110    3.6960 C.3   219  TYR219      0.1736
    114  C         66.5230    0.2780    4.4500 C.2   219  TYR219      0.2595
    115  O         66.5720    1.5120    4.5560 O.2   219  TYR219     -0.2718
    116  CB        65.8220   -0.3830    2.1980 C.3   219  TYR219      0.0548
    117  CG        65.0120   -1.2120    1.3240 C.ar  219  TYR219     -0.0200
    118  CD1       65.2760   -2.5460    1.1940 C.ar  219  TYR219     -0.0009
    119  CD2       63.9990   -0.6130    0.5790 C.ar  219  TYR219     -0.0009
    120  CE1       64.4660   -3.3760    0.3310 C.ar  219  TYR219      0.0417
    121  CE2       63.1980   -1.3590   -0.2410 C.ar  219  TYR219      0.0417
    122  CZ        63.4340   -2.7290   -0.3630 C.ar  219  TYR219      0.1957
    123  OH        62.6060   -3.4510   -1.2430 O.3   219  TYR219     -0.2866
    124  N         67.4750   -0.5590    4.9150 N.am  220  ALA220     -0.1966
    125  CA        68.7270   -0.0830    5.4520 C.3   220  ALA220      0.1728
    126  C         69.7490   -0.8460    4.5880 C.2   220  ALA220      0.2616
    127  O         70.0000   -2.0360    4.7690 O.2   220  ALA220     -0.2715
    128  CB        68.8720   -0.4680    6.9300 C.3   220  ALA220      0.0334
    129  N         70.3240   -0.1130    3.5970 N.am  221  ILE221     -0.1977
    130  CA        71.1350   -0.7370    2.5090 C.3   221  ILE221      0.1596
    131  C         70.3180   -1.8320    1.9000 C.2   221  ILE221      0.2287
    132  O         69.2440   -1.4860    1.2930 O.2   221  ILE221     -0.2864
    133  CB        72.5630   -1.2160    2.9650 C.3   221  ILE221      0.0276
    134  CG1       73.2530   -0.0700    3.7310 C.3   221  ILE221      0.0022
    135  CG2       73.4070   -1.5290    1.6990 C.3   221  ILE221      0.0022
    136  CD1       74.7240   -0.3630    4.0500 C.3   221  ILE221      0.0001
    137  N         62.8360    4.8460   -0.1100 N.3   282  ARG282     -0.1245
    138  CA        64.1590    5.2930   -0.5950 C.3   282  ARG282      0.1563
    139  C         64.2350    5.0350   -2.0830 C.2   282  ARG282      0.2260
    140  O         64.4830    3.8990   -2.5010 O.2   282  ARG282     -0.2867
    141  CB        65.3060    4.5470    0.1090 C.3   282  ARG282      0.0307
    142  CG        66.6930    5.2370    0.0230 C.3   282  ARG282      0.0489
    143  CD        67.8510    4.2490    0.2740 C.3   282  ARG282      0.2205
    144  NE        67.9310    3.3000   -0.8560 N.pl3 282  ARG282     -0.0865
    145  CZ        68.2410    1.9820   -0.7790 C.cat 282  ARG282      0.5346
    146  NH1       68.5720    1.3530    0.3790 N.pl3 282  ARG282      0.1354
    147  NH2       68.2520    1.2520   -1.9070 N.pl3 282  ARG282      0.1354
    148  N         71.2840    3.1480   -2.1030 N.3   286  HIS286     -0.1241
    149  CA        71.6860    3.5960   -0.7710 C.3   286  HIS286      0.1621
    150  C         72.7490    4.7120   -0.8490 C.2   286  HIS286      0.2264
    151  O         72.7100    5.7270   -0.0870 O.2   286  HIS286     -0.2867
    152  CB        72.2180    2.3950    0.0090 C.3   286  HIS286      0.0745
    153  CG        72.7950    2.8210    1.2920 C.ar  286  HIS286      0.0817
    154  ND1       74.1550    2.9150    1.5130 N.ar  286  HIS286     -0.2268
    155  CD2       72.1850    3.3080    2.3880 C.ar  286  HIS286      0.1154
    156  CE1       74.3480    3.4510    2.7150 C.ar  286  HIS286      0.1986
    157  NE2       73.1670    3.6940    3.2480 N.ar  286  HIS286     -0.2212
@<TRIPOS>BOND
     1   140   139    2
     2   148   149    1
     3   139   138    1
     4   147   145    1
     5     1     2    1
     6     3     2    1
     7     3     4    2
     8     2     5    1
     9   123   122    1
    10   144   145    2
    11   144   143    1
    12   150   149    1
    13   150   151    2
    14   145   146    1
    15   149   152    1
    16   138   137    1
    17   138   141    1
    18   122   121   ar
    19   122   120   ar
    20   121   119   ar
    21   152   153    1
    22   142   141    1
    23   142   143    1
    24     5     6    1
    25   120   118   ar
    26    39    38    1
    27   119   117   ar
    28     6     7    1
    29   118   117   ar
    30   153   154   ar
    31   153   155   ar
    32   132   131    2
    33   117   116    1
    34   154   156   ar
    35    38    40    1
    36    38    37    2
    37   135   133    1
    38   131   130    1
    39    36    37    1
    40    36    35    1
    41   116   113    1
    42   107   106    2
    43   155   157   ar
    44     8     7    1
    45    35    34    1
    46   130   133    1
    47   130   129    1
    48   156   157   ar
    49   133   134    1
    50   111   109   am
    51   108   109    1
    52   108   105    1
    53   106   105    1
    54   129   126   am
    55   109   110    2
    56   113   112    1
    57   113   114    1
    58   134   136    1
    59    34    31    1
    60   105   104    1
    61    21    20    2
    62    31    32    1
    63    31    30    1
    64   114   115    2
    65   114   124   am
    66    33    32    2
    67   126   127    2
    68   126   125    1
    69   124   125    1
    70    24    26   ar
    71    24    23   ar
    72    20    30   am
    73    20    19    1
    74    26    28   ar
    75   102   101    1
    76   125   128    1
    77    22    23    1
    78    22    19    1
    79    23    25   ar
    80    28    29    1
    81    28    27   ar
    82    99   100    1
    83    99    98    1
    84   101   100    2
    85   101   103    1
    86    19    18    1
    87    25    27   ar
    88    74    72   ar
    89    98    97    1
    90    97    94    1
    91    73    72   ar
    92    18    11   am
    93    72    71    1
    94    95    96    2
    95    95    94    1
    96    94    93    1
    97    46    45    1
    98    16    15    2
    99    11    12    2
   100    11    10    1
   101    71    70    1
   102    45    42    1
   103    14    15    1
   104    14    13    1
   105    15    17   am
   106    63    62    1
   107    63    64    1
   108    13    10    1
   109    42    41    1
   110    42    43    1
   111    66    64   am
   112    66    67    1
   113    10     9    1
   114    70    67    1
   115    61    59    1
   116    75    76    1
   117    75    68   am
   118    60    59    1
   119    76    77    1
   120    44    43    2
   121    64    65    2
   122    67    68    1
   123    59    58    1
   124    43    47   am
   125    68    69    2
   126    79    77   am
   127    79    80    1
   128    77    78    2
   129    47    53    1
   130    47    48    1
   131    58    55    1
   132    83    80    1
   133    53    52    1
   134    80    81    1
   135    54    55    1
   136    54    49   am
   137    48    49    1
   138    48    51    1
   139    55    56    1
   140    49    50    2
   141    52    51    1
   142    81    82    2
   143    56    57    2
   144    92    90   ar
   145    89    90    1
   146    89    88    1
   147    90    91   ar
   148    84    85    1
   149    88    85    1
   150    85    86    1
   151    86    87    2
