@<TRIPOS>MOLECULE
tmp/2bfgD00.pdb
 140 135 0 0 0
SMALL
GASTEIGER

@<TRIPOS>ATOM
      1  N         25.1910  105.2520   74.7850 N.3   113  VAL113     -0.1231
      2  CA        26.5440  104.7420   74.6870 C.3   113  VAL113      0.1692
      3  C         26.5060  103.6140   73.6570 C.2   113  VAL113      0.2592
      4  O         25.4880  102.9090   73.5120 O.2   113  VAL113     -0.2718
      5  CB        27.0630  104.2720   76.0770 C.3   113  VAL113      0.0266
      6  CG1       26.1580  103.1820   76.6770 C.3   113  VAL113      0.0020
      7  CG2       28.4650  103.7770   75.9780 C.3   113  VAL113      0.0020
      8  N         27.5980  103.4840   72.9100 N.am  114  PHE114     -0.1976
      9  CA        27.7870  102.3830   71.9740 C.3   114  PHE114      0.1639
     10  C         27.0270  102.5940   70.7040 C.2   114  PHE114      0.2290
     11  O         26.1210  103.4130   70.6130 O.2   114  PHE114     -0.2864
     12  CB        27.3260  101.0110   72.5390 C.3   114  PHE114      0.0560
     13  CG        28.0100  100.5850   73.8140 C.ar  114  PHE114     -0.0200
     14  CD1       27.2710  100.0580   74.8620 C.ar  114  PHE114     -0.0042
     15  CD2       29.3820  100.6710   73.9580 C.ar  114  PHE114     -0.0042
     16  CE1       27.8680   99.6380   76.0100 C.ar  114  PHE114     -0.0003
     17  CE2       29.9800  100.2740   75.1330 C.ar  114  PHE114     -0.0003
     18  CZ        29.2130   99.7550   76.1480 C.ar  114  PHE114     -0.0000
     19  N         26.0120   99.8020   85.1620 N.3   158  ASN158     -0.1240
     20  CA        27.3560   99.5380   84.7630 C.3   158  ASN158      0.1653
     21  C         28.1380  100.8340   84.7210 C.2   158  ASN158      0.2266
     22  O         27.6810  101.8070   84.1660 O.2   158  ASN158     -0.2867
     23  CB        27.3450   98.9330   83.3870 C.3   158  ASN158      0.1155
     24  CG        28.7300   98.6830   82.8700 C.2   158  ASN158      0.2627
     25  OD1       29.4430   97.8420   83.4150 O.2   158  ASN158     -0.2716
     26  ND2       29.1410   99.4340   81.8450 N.am  158  ASN158     -0.0877
     27  N         31.9000  106.4350   85.1410 N.3   162  LEU162     -0.1245
     28  CA        32.2400  106.8950   83.7920 C.3   162  LEU162      0.1561
     29  C         31.1060  107.6570   83.1400 C.2   162  LEU162      0.2260
     30  O         29.9900  107.1570   83.0170 O.2   162  LEU162     -0.2867
     31  CB        32.5390  105.7160   82.8690 C.3   162  LEU162      0.0270
     32  CG        33.8610  104.9880   83.0020 C.3   162  LEU162      0.0019
     33  CD1       33.8870  103.8760   81.9810 C.3   162  LEU162      0.0001
     34  CD2       35.0540  105.9580   82.8160 C.3   162  LEU162      0.0001
     35  N         30.5340  108.1310   80.1380 N.3   164  ASN164     -0.1225
     36  CA        29.9920  107.4020   78.9930 C.3   164  ASN164      0.1785
     37  C         28.8320  106.4980   79.3480 C.2   164  ASN164      0.2597
     38  O         27.9190  106.3000   78.5310 O.2   164  ASN164     -0.2718
     39  CB        31.0870  106.5790   78.3310 C.3   164  ASN164      0.1169
     40  CG        31.7240  107.3160   77.1950 C.2   164  ASN164      0.2627
     41  OD1       31.1240  107.4720   76.1090 O.2   164  ASN164     -0.2716
     42  ND2       32.9160  107.8090   77.4260 N.am  164  ASN164     -0.0877
     43  N         28.8700  105.9470   80.5600 N.am  165  PHE165     -0.1976
     44  CA        27.8750  104.9710   80.9830 C.3   165  PHE165      0.1639
     45  C         26.7800  105.5280   81.8520 C.2   165  PHE165      0.2290
     46  O         25.7780  104.8670   82.0600 O.2   165  PHE165     -0.2864
     47  CB        28.5570  103.8030   81.6750 C.3   165  PHE165      0.0560
     48  CG        29.2640  102.9300   80.7240 C.ar  165  PHE165     -0.0200
     49  CD1       30.6460  102.9490   80.6210 C.ar  165  PHE165     -0.0042
     50  CD2       28.5360  102.1520   79.8550 C.ar  165  PHE165     -0.0042
     51  CE1       31.2940  102.1400   79.6900 C.ar  165  PHE165     -0.0003
     52  CE2       29.1690  101.3430   78.9270 C.ar  165  PHE165     -0.0003
     53  CZ        30.5500  101.3280   78.8410 C.ar  165  PHE165     -0.0000
     54  N         34.0770  101.2200   86.8550 N.3   200  CYS200     -0.1221
     55  CA        35.3810  100.9550   86.2690 C.3   200  CYS200      0.1808
     56  C         36.4590  101.4370   87.2210 C.2   200  CYS200      0.2601
     57  O         36.1630  102.0440   88.2500 O.2   200  CYS200     -0.2717
     58  CB        35.5290  101.6110   84.9090 C.3   200  CYS200      0.0970
     59  SG        35.3290  100.3920   83.6160 S.3   200  CYS200     -0.0800
     60  N         37.7130  101.1440   86.8840 N.am  201  GLY201     -0.1957
     61  CA        38.8370  101.5160   87.7220 C.3   201  GLY201      0.1869
     62  C         39.0590  103.0160   87.6930 C.2   201  GLY201      0.2309
     63  O         38.3440  103.7480   86.9870 O.2   201  GLY201     -0.2863
     64  N         34.8450   96.7540   87.7680 N.3   227  HIS227     -0.1241
     65  CA        35.5400   96.3100   86.5770 C.3   227  HIS227      0.1621
     66  C         37.0290   96.3730   86.8520 C.2   227  HIS227      0.2264
     67  O         37.4790   96.8850   87.8910 O.2   227  HIS227     -0.2867
     68  CB        35.1630   97.1510   85.3610 C.3   227  HIS227      0.0745
     69  CG        33.6870   97.2650   85.1460 C.ar  227  HIS227      0.0817
     70  ND1       32.7640   96.7500   86.0290 N.ar  227  HIS227     -0.2268
     71  CD2       32.9750   97.8490   84.1600 C.ar  227  HIS227      0.1154
     72  CE1       31.5490   97.0020   85.5870 C.ar  227  HIS227      0.1986
     73  NE2       31.6510   97.6700   84.4590 N.ar  227  HIS227     -0.2212
     74  N         40.6590   96.5900   84.4210 N.3   229  TYR229     -0.1241
     75  CA        41.4140   96.4970   83.1860 C.3   229  TYR229      0.1605
     76  C         42.7790   97.0360   83.4800 C.2   229  TYR229      0.2264
     77  O         43.0430   97.5720   84.5520 O.2   229  TYR229     -0.2867
     78  CB        40.7420   97.2790   82.0520 C.3   229  TYR229      0.0534
     79  CG        39.4060   96.7100   81.6350 C.ar  229  TYR229     -0.0201
     80  CD1       38.2380   97.1760   82.1960 C.ar  229  TYR229     -0.0009
     81  CD2       39.3110   95.7070   80.6440 C.ar  229  TYR229     -0.0009
     82  CE1       37.0030   96.6720   81.7990 C.ar  229  TYR229      0.0417
     83  CE2       38.0690   95.1800   80.2440 C.ar  229  TYR229      0.0417
     84  CZ        36.9290   95.6560   80.8330 C.ar  229  TYR229      0.1957
     85  OH        35.6880   95.1740   80.4860 O.3   229  TYR229     -0.2866
     86  N         43.2840  104.4340   74.4850 N.3   234  PRO234     -0.2116
     87  CA        43.8760  104.3800   73.1440 C.3   234  PRO234      0.1372
     88  C         44.8030  105.5440   72.8260 C.2   234  PRO234      0.2244
     89  O         44.4980  106.6850   73.1040 O.2   234  PRO234     -0.2868
     90  CB        42.6610  104.4210   72.2120 C.3   234  PRO234      0.0268
     91  CG        41.4600  104.3280   73.0760 C.3   234  PRO234      0.0207
     92  CD        41.8510  104.1040   74.4590 C.3   234  PRO234      0.0892
     93  N         41.1480  100.1900   68.2830 N.3   242  TYR242     -0.1241
     94  CA        41.8720  100.9890   69.2730 C.3   242  TYR242      0.1605
     95  C         43.0720  100.2000   69.6680 C.2   242  TYR242      0.2264
     96  O         43.0110   99.0050   69.8970 O.2   242  TYR242     -0.2867
     97  CB        41.0570  101.2690   70.5350 C.3   242  TYR242      0.0534
     98  CG        39.9620  102.2520   70.3540 C.ar  242  TYR242     -0.0201
     99  CD1       38.8190  102.1910   71.1250 C.ar  242  TYR242     -0.0009
    100  CD2       40.0610  103.2610   69.4280 C.ar  242  TYR242     -0.0009
    101  CE1       37.7980  103.1110   70.9630 C.ar  242  TYR242      0.0417
    102  CE2       39.0290  104.1620   69.2430 C.ar  242  TYR242      0.0417
    103  CZ        37.9200  104.0960   70.0160 C.ar  242  TYR242      0.1957
    104  OH        36.9390  105.0290   69.8070 O.3   242  TYR242     -0.2866
    105  N         33.7600   92.7700   85.1170 N.3   277  GLU277     -0.1245
    106  CA        34.3630   92.8210   83.7740 C.3   277  GLU277      0.1567
    107  C         35.8590   92.8110   83.9930 C.2   277  GLU277      0.2260
    108  O         36.3990   93.5690   84.8050 O.2   277  GLU277     -0.2867
    109  CB        34.0130   94.0920   82.9820 C.3   277  GLU277      0.0388
    110  CG        32.5430   94.3170   82.7060 C.3   277  GLU277      0.1160
    111  CD        32.2790   95.5730   81.8870 C.2   277  GLU277      0.3649
    112  OE1       33.1830   96.0000   81.1520 O.co2 277  GLU277     -0.2457
    113  OE2       31.1710   96.1400   81.9820 O.co2 277  GLU277     -0.2457
    114  N         39.9940   97.3930   77.4820 N.3   282  TYR282     -0.1227
    115  CA        38.5360   97.5610   77.6130 C.3   282  TYR282      0.1736
    116  C         37.8970   97.9890   76.2790 C.2   282  TYR282      0.2596
    117  O         36.7730   98.4630   76.2350 O.2   282  TYR282     -0.2718
    118  CB        38.2190   98.5930   78.6970 C.3   282  TYR282      0.0548
    119  CG        38.9280   99.9120   78.5760 C.ar  282  TYR282     -0.0200
    120  CD1       38.5920  100.8210   77.5810 C.ar  282  TYR282     -0.0009
    121  CD2       39.9230  100.2610   79.4730 C.ar  282  TYR282     -0.0009
    122  CE1       39.2470  102.0420   77.4750 C.ar  282  TYR282      0.0417
    123  CE2       40.5810  101.4800   79.3780 C.ar  282  TYR282      0.0417
    124  CZ        40.2410  102.3620   78.3820 C.ar  282  TYR282      0.1957
    125  OH        40.8950  103.5670   78.2970 O.3   282  TYR282     -0.2866
    126  N         38.6220   97.8250   75.1880 N.am  283  SER283     -0.1952
    127  CA        38.0620   98.1230   73.9000 C.3   283  SER283      0.1924
    128  C         37.8310   96.8310   73.1810 C.2   283  SER283      0.2314
    129  O         38.7450   96.0210   73.1070 O.2   283  SER283     -0.2863
    130  CB        39.0000   98.9680   73.0620 C.3   283  SER283      0.2116
    131  OG        38.4250   99.1450   71.7860 O.3   283  SER283     -0.2180
    132  N         29.2750   96.7020   70.6140 N.3   323  GLU323     -0.1245
    133  CA        29.5200   98.0180   71.1800 C.3   323  GLU323      0.1567
    134  C         30.1650   98.9360   70.1700 C.2   323  GLU323      0.2260
    135  O         29.8040  100.0960   70.0500 O.2   323  GLU323     -0.2867
    136  CB        30.4150   97.9140   72.3970 C.3   323  GLU323      0.0388
    137  CG        29.7110   97.2880   73.5730 C.3   323  GLU323      0.1160
    138  CD        30.5540   97.2640   74.8090 C.2   323  GLU323      0.3649
    139  OE1       31.7000   97.8060   74.8090 O.co2 323  GLU323     -0.2457
    140  OE2       30.0470   96.7090   75.7940 O.co2 323  GLU323     -0.2457
@<TRIPOS>BOND
     1    93    94    1
     2   102   100   ar
     3   102   103   ar
     4    94    95    1
     5    94    97    1
     6   100    98   ar
     7    95    96    2
     8   104   103    1
     9   103   101   ar
    10   135   134    2
    11   134   133    1
    12    98    97    1
    13    98    99   ar
    14    11    10    2
    15   132   133    1
    16    10     9    1
    17   101    99   ar
    18   133   136    1
    19   131   130    1
    20     9    12    1
    21     9     8    1
    22    90    91    1
    23    90    87    1
    24   136   137    1
    25    12    13    1
    26    88    89    2
    27    88    87    1
    28     8     3   am
    29   130   127    1
    30    91    92    1
    31   129   128    2
    32    87    86    1
    33   128   127    1
    34     4     3    2
    35   137   138    1
    36     3     2    1
    37    13    15   ar
    38    13    14   ar
    39   127   126    1
    40    15    17   ar
    41    92    86    1
    42     2     1    1
    43     2     5    1
    44   138   139   ar
    45   138   140   ar
    46    14    16   ar
    47    17    18   ar
    48   126   116   am
    49     7     5    1
    50    16    18   ar
    51     5     6    1
    52    41    40    2
    53   117   116    2
    54   116   115    1
    55    40    42   am
    56    40    39    1
    57   122   120   ar
    58   122   124   ar
    59   114   115    1
    60   120   119   ar
    61   115   118    1
    62   125   124    1
    63    39    36    1
    64   124   123   ar
    65    38    37    2
    66   119   118    1
    67   119   121   ar
    68    53    52   ar
    69    53    51   ar
    70    52    50   ar
    71    36    37    1
    72    36    35    1
    73    37    43   am
    74   123   121   ar
    75    51    49   ar
    76    50    48   ar
    77    83    81   ar
    78    83    84   ar
    79    85    84    1
    80    43    44    1
    81    49    48   ar
    82    81    79   ar
    83    48    47    1
    84    84    82   ar
    85    44    47    1
    86    44    45    1
    87   112   111   ar
    88    79    78    1
    89    79    80   ar
    90    82    80   ar
    91    26    24   am
    92    45    46    2
    93   111   113   ar
    94   111   110    1
    95    33    32    1
    96    78    75    1
    97   110   109    1
    98    34    32    1
    99    31    32    1
   100    31    28    1
   101    24    23    1
   102    24    25    2
   103   109   106    1
   104    30    29    2
   105    29    28    1
   106    75    76    1
   107    75    74    1
   108    23    20    1
   109    76    77    2
   110    59    58    1
   111   106   107    1
   112   106   105    1
   113    28    27    1
   114   107   108    2
   115    71    73   ar
   116    71    69   ar
   117    22    21    2
   118    73    72   ar
   119    21    20    1
   120    20    19    1
   121    58    55    1
   122    69    68    1
   123    69    70   ar
   124    68    65    1
   125    72    70   ar
   126    55    54    1
   127    55    56    1
   128    65    66    1
   129    65    64    1
   130    66    67    2
   131    60    56   am
   132    60    61    1
   133    63    62    2
   134    56    57    2
   135    62    61    1
