@<TRIPOS>MOLECULE
tmp/2bfgB00.pdb
 135 132 0 0 0
SMALL
GASTEIGER

@<TRIPOS>ATOM
      1  N         30.5910   41.7290   53.9040 N.3    53  HIS53      -0.1241
      2  CA        30.1430   40.3640   53.9470 C.3    53  HIS53       0.1621
      3  C         28.8410   40.3540   54.6820 C.2    53  HIS53       0.2264
      4  O         28.4410   41.3610   55.2160 O.2    53  HIS53      -0.2867
      5  CB        31.0940   39.5990   54.8270 C.3    53  HIS53       0.0745
      6  CG        32.4540   39.4450   54.2670 C.ar   53  HIS53       0.0817
      7  ND1       32.6760   38.9890   52.9930 N.ar   53  HIS53      -0.2268
      8  CD2       33.6690   39.5980   54.8370 C.ar   53  HIS53       0.1154
      9  CE1       33.9780   38.8990   52.7960 C.ar   53  HIS53       0.1986
     10  NE2       34.6000   39.2590   53.8990 N.ar   53  HIS53      -0.2212
     11  N         34.9410   32.5740   60.2470 N.3   114  PHE114     -0.1241
     12  CA        34.9510   33.6360   61.2280 C.3   114  PHE114      0.1605
     13  C         34.3270   33.2060   62.5280 C.2   114  PHE114      0.2264
     14  O         33.6870   32.1630   62.6270 O.2   114  PHE114     -0.2867
     15  CB        34.2300   34.8670   60.7320 C.3   114  PHE114      0.0534
     16  CG        34.6970   35.3790   59.4140 C.ar  114  PHE114     -0.0203
     17  CD1       33.7670   35.7850   58.4500 C.ar  114  PHE114     -0.0042
     18  CD2       36.0600   35.5440   59.1470 C.ar  114  PHE114     -0.0042
     19  CE1       34.1800   36.3080   57.2360 C.ar  114  PHE114     -0.0003
     20  CE2       36.4840   36.0670   57.9350 C.ar  114  PHE114     -0.0003
     21  CZ        35.5460   36.4450   56.9800 C.ar  114  PHE114     -0.0000
     22  N         32.3610   35.4950   47.8570 N.3   158  ASN158     -0.1225
     23  CA        33.5860   36.0650   48.3760 C.3   158  ASN158      0.1785
     24  C         34.6470   35.0250   48.4700 C.2   158  ASN158      0.2597
     25  O         34.5110   34.0730   49.2070 O.2   158  ASN158     -0.2718
     26  CB        33.3450   36.5670   49.7860 C.3   158  ASN158      0.1169
     27  CG        34.5690   37.1330   50.3890 C.2   158  ASN158      0.2627
     28  OD1       34.9670   38.1710   49.9650 O.2   158  ASN158     -0.2716
     29  ND2       35.1670   36.4680   51.3990 N.am  158  ASN158     -0.0877
     30  N         35.7270   35.2380   47.7470 N.am  159  ALA159     -0.1979
     31  CA        36.9250   34.4220   47.8710 C.3   159  ALA159      0.1597
     32  C         36.5710   32.9560   47.7020 C.2   159  ALA159      0.2287
     33  O         36.9000   32.1400   48.5560 O.2   159  ALA159     -0.2864
     34  CB        37.5760   34.6760   49.2030 C.3   159  ALA159      0.0319
     35  N         36.2150   30.1000   52.6800 N.3   165  PHE165     -0.1241
     36  CA        35.0610   30.8810   52.2600 C.3   165  PHE165      0.1605
     37  C         34.0980   30.1510   51.3250 C.2   165  PHE165      0.2264
     38  O         32.9710   30.5950   51.1100 O.2   165  PHE165     -0.2867
     39  CB        35.5650   32.1440   51.5990 C.3   165  PHE165      0.0534
     40  CG        36.2000   33.0960   52.5640 C.ar  165  PHE165     -0.0203
     41  CD1       37.5730   33.1720   52.6910 C.ar  165  PHE165     -0.0042
     42  CD2       35.4120   33.8770   53.3750 C.ar  165  PHE165     -0.0042
     43  CE1       38.1390   34.0400   53.5850 C.ar  165  PHE165     -0.0003
     44  CE2       35.9640   34.7300   54.2560 C.ar  165  PHE165     -0.0003
     45  CZ        37.3390   34.8270   54.3650 C.ar  165  PHE165     -0.0000
     46  N         40.3420   36.0550   46.1190 N.3   200  CYS200     -0.1235
     47  CA        41.5110   36.6390   46.7380 C.3   200  CYS200      0.1677
     48  C         42.6560   36.3740   45.7430 C.2   200  CYS200      0.2270
     49  O         42.4660   35.6470   44.7680 O.2   200  CYS200     -0.2867
     50  CB        41.7780   36.0060   48.1280 C.3   200  CYS200      0.0956
     51  SG        41.7720   37.1890   49.5180 S.3   200  CYS200     -0.0801
     52  N         40.2750   40.5120   45.0770 N.3   227  HIS227     -0.1241
     53  CA        40.8730   41.0920   46.2680 C.3   227  HIS227      0.1621
     54  C         42.3460   41.2220   46.0780 C.2   227  HIS227      0.2264
     55  O         42.9380   40.4860   45.2920 O.2   227  HIS227     -0.2867
     56  CB        40.6360   40.2190   47.4740 C.3   227  HIS227      0.0745
     57  CG        39.2020   40.0360   47.8020 C.ar  227  HIS227      0.0817
     58  ND1       38.7800   39.1720   48.7800 N.ar  227  HIS227     -0.2268
     59  CD2       38.0920   40.6360   47.3130 C.ar  227  HIS227      0.1154
     60  CE1       37.4660   39.2120   48.8510 C.ar  227  HIS227      0.1986
     61  NE2       37.0240   40.1150   47.9920 N.ar  227  HIS227     -0.2212
     62  N         45.8560   41.7960   48.5900 N.3   229  TYR229     -0.1241
     63  CA        46.6140   42.0050   49.8110 C.3   229  TYR229      0.1605
     64  C         48.0400   41.6400   49.5040 C.2   229  TYR229      0.2264
     65  O         48.3140   40.9220   48.5200 O.2   229  TYR229     -0.2867
     66  CB        46.1180   41.1260   50.9460 C.3   229  TYR229      0.0534
     67  CG        44.7410   41.4700   51.4510 C.ar  229  TYR229     -0.0201
     68  CD1       43.6370   40.8050   50.9720 C.ar  229  TYR229     -0.0009
     69  CD2       44.5400   42.4640   52.4220 C.ar  229  TYR229     -0.0009
     70  CE1       42.3960   41.0860   51.4300 C.ar  229  TYR229      0.0417
     71  CE2       43.2740   42.7590   52.8740 C.ar  229  TYR229      0.0417
     72  CZ        42.1960   42.0550   52.3680 C.ar  229  TYR229      0.1957
     73  OH        40.8790   42.2950   52.7860 O.3   229  TYR229     -0.2866
     74  N         38.3310   44.1360   47.9600 N.3   277  GLU277     -0.1245
     75  CA        39.0610   44.2180   49.2230 C.3   277  GLU277      0.1567
     76  C         40.4800   44.6000   48.9040 C.2   277  GLU277      0.2260
     77  O         41.0990   43.9630   48.0450 O.2   277  GLU277     -0.2867
     78  CB        39.1770   42.8650   49.9170 C.3   277  GLU277      0.0388
     79  CG        38.2170   42.5890   51.0320 C.3   277  GLU277      0.1160
     80  CD        38.1890   41.1180   51.3990 C.2   277  GLU277      0.3649
     81  OE1       39.2020   40.5720   51.9790 O.co2 277  GLU277     -0.2457
     82  OE2       37.1540   40.5160   51.0650 O.co2 277  GLU277     -0.2457
     83  N         45.7050   40.9810   55.6280 N.3   282  TYR282     -0.1241
     84  CA        44.3890   40.4410   55.3790 C.3   282  TYR282      0.1605
     85  C         43.7470   39.9170   56.6620 C.2   282  TYR282      0.2264
     86  O         42.6100   39.4620   56.6370 O.2   282  TYR282     -0.2867
     87  CB        44.4450   39.3490   54.2720 C.3   282  TYR282      0.0534
     88  CG        45.4120   38.2260   54.4920 C.ar  282  TYR282     -0.0201
     89  CD1       45.2660   37.3640   55.5640 C.ar  282  TYR282     -0.0009
     90  CD2       46.4690   38.0140   53.6220 C.ar  282  TYR282     -0.0009
     91  CE1       46.1340   36.3420   55.7640 C.ar  282  TYR282      0.0417
     92  CE2       47.3580   36.9890   53.8190 C.ar  282  TYR282      0.0417
     93  CZ        47.1880   36.1550   54.8840 C.ar  282  TYR282      0.1957
     94  OH        48.0510   35.1190   55.1110 O.3   282  TYR282     -0.2866
     95  N         42.3270   40.8660   60.4080 N.3   284  PRO284     -0.2116
     96  CA        41.7960   41.9400   61.2360 C.3   284  PRO284      0.1372
     97  C         42.4170   42.0400   62.6410 C.2   284  PRO284      0.2244
     98  O         41.8650   42.7260   63.4850 O.2   284  PRO284     -0.2868
     99  CB        40.3310   41.5460   61.3690 C.3   284  PRO284      0.0268
    100  CG        40.3530   40.0540   61.2650 C.3   284  PRO284      0.0207
    101  CD        41.3930   39.7390   60.3030 C.3   284  PRO284      0.0892
    102  N         39.4140   47.6590   52.6180 N.3   315  TRP315     -0.1241
    103  CA        39.0010   46.8420   53.7380 C.3   315  TRP315      0.1605
    104  C         39.7010   47.3360   55.0240 C.2   315  TRP315      0.2264
    105  O         40.8910   47.0970   55.1650 O.2   315  TRP315     -0.2867
    106  CB        39.4490   45.4070   53.4020 C.3   315  TRP315      0.0550
    107  CG        38.7500   44.3590   54.1350 C.ar  315  TRP315      0.0003
    108  CD1       39.2570   43.5800   55.1180 C.ar  315  TRP315      0.0946
    109  CD2       37.3980   43.9430   53.9430 C.ar  315  TRP315      0.0152
    110  NE1       38.3030   42.6960   55.5570 N.ar  315  TRP315     -0.2442
    111  CE2       37.1460   42.9040   54.8530 C.ar  315  TRP315      0.0810
    112  CE3       36.3720   44.3420   53.0880 C.ar  315  TRP315      0.0012
    113  CZ2       35.9030   42.2700   54.9440 C.ar  315  TRP315      0.0191
    114  CZ3       35.1530   43.7050   53.1610 C.ar  315  TRP315      0.0001
    115  CH2       34.9300   42.6800   54.0780 C.ar  315  TRP315      0.0015
    116  N         35.2100   39.4620   62.7470 N.3   323  GLU323     -0.1245
    117  CA        35.6470   38.2310   62.1100 C.3   323  GLU323      0.1567
    118  C         36.5070   37.4090   63.0440 C.2   323  GLU323      0.2260
    119  O         36.5140   36.1870   62.9640 O.2   323  GLU323     -0.2867
    120  CB        36.4600   38.5210   60.8770 C.3   323  GLU323      0.0388
    121  CG        35.6360   38.8420   59.6540 C.3   323  GLU323      0.1160
    122  CD        36.5030   39.1620   58.4550 C.2   323  GLU323      0.3649
    123  OE1       37.7280   38.9140   58.5680 O.co2 323  GLU323     -0.2457
    124  OE2       35.9750   39.6640   57.4190 O.co2 323  GLU323     -0.2457
    125  N         41.3020   46.2460   60.4140 N.3   335  PHE335     -0.1241
    126  CA        41.4080   46.8750   59.1200 C.3   335  PHE335      0.1605
    127  C         40.9770   48.3350   59.1050 C.2   335  PHE335      0.2264
    128  O         41.3370   49.0780   58.2170 O.2   335  PHE335     -0.2867
    129  CB        40.4820   46.1670   58.1620 C.3   335  PHE335      0.0534
    130  CG        40.7050   44.7200   58.0340 C.ar  335  PHE335     -0.0203
    131  CD1       39.7140   43.8210   58.3990 C.ar  335  PHE335     -0.0042
    132  CD2       41.8700   44.2420   57.4660 C.ar  335  PHE335     -0.0042
    133  CE1       39.8860   42.4680   58.2180 C.ar  335  PHE335     -0.0003
    134  CE2       42.0450   42.8970   57.2810 C.ar  335  PHE335     -0.0003
    135  CZ        41.0470   42.0050   57.6670 C.ar  335  PHE335     -0.0000
@<TRIPOS>BOND
     1    49    48    2
     2    52    53    1
     3    55    54    2
     4    48    47    1
     5    54    53    1
     6    46    47    1
     7    53    56    1
     8    47    50    1
     9    59    57   ar
    10    59    61   ar
    11    56    57    1
    12    32    31    1
    13    32    33    2
    14    30    31    1
    15    30    24   am
    16    57    58   ar
    17    22    23    1
    18    31    34    1
    19    74    75    1
    20    61    60   ar
    21    77    76    2
    22    50    51    1
    23    23    24    1
    24    23    26    1
    25    24    25    2
    26    65    64    2
    27    62    63    1
    28    58    60   ar
    29    76    75    1
    30    75    78    1
    31    64    63    1
    32    26    27    1
    33    63    66    1
    34    78    79    1
    35    28    27    2
    36    27    29   am
    37    66    67    1
    38    68    70   ar
    39    68    67   ar
    40    79    80    1
    41    82    80   ar
    42    38    37    2
    43    37    36    1
    44    80    81   ar
    45    70    72   ar
    46    67    69   ar
    47    39    36    1
    48    39    40    1
    49    36    35    1
    50    72    73    1
    51    72    71   ar
    52    69    71   ar
    53    40    41   ar
    54    40    42   ar
    55   102   103    1
    56    41    43   ar
    57     9     7   ar
    58     9    10   ar
    59     7     6   ar
    60   112   114   ar
    61   112   109   ar
    62   114   115   ar
    63    42    44   ar
    64   106   103    1
    65   106   107    1
    66    43    45   ar
    67    90    92   ar
    68    90    88   ar
    69   103   104    1
    70    92    93   ar
    71    10     8   ar
    72     1     2    1
    73   109   107   ar
    74   109   111   ar
    75     2     3    1
    76     2     5    1
    77   115   113   ar
    78   107   108   ar
    79    44    45   ar
    80     6     5    1
    81     6     8   ar
    82    87    88    1
    83    87    84    1
    84    88    89   ar
    85     3     4    2
    86   111   113   ar
    87   111   110   ar
    88    93    94    1
    89    93    91   ar
    90   104   105    2
    91   108   110   ar
    92    84    83    1
    93    84    85    1
    94    89    91   ar
    95    86    85    2
    96    21    19   ar
    97    21    20   ar
    98    19    17   ar
    99   134   132   ar
   100   134   135   ar
   101   124   122   ar
   102   132   130   ar
   103   135   133   ar
   104    20    18   ar
   105   130   129    1
   106   130   131   ar
   107   129   126    1
   108   128   127    2
   109   133   131   ar
   110    17    16   ar
   111   122   123   ar
   112   122   121    1
   113   127   126    1
   114   126   125    1
   115    18    16   ar
   116    16    15    1
   117   121   120    1
   118    11    12    1
   119   101    95    1
   120   101   100    1
   121    95    96    1
   122    15    12    1
   123   120   117    1
   124    12    13    1
   125    96    99    1
   126    96    97    1
   127   100    99    1
   128   117   116    1
   129   117   118    1
   130    13    14    2
   131    97    98    2
   132   119   118    2
