@<TRIPOS>MOLECULE
tmp/2bfmA01.pdb
 156 147 0 0 0
SMALL
GASTEIGER

@<TRIPOS>ATOM
      1  N         -7.5340   30.1150   53.1250 N.3    12  ARG12      -0.1245
      2  CA        -7.3130   31.3590   53.8660 C.3    12  ARG12       0.1563
      3  C         -6.1090   32.1850   53.3520 C.2    12  ARG12       0.2260
      4  O         -6.0190   32.4230   52.1450 O.2    12  ARG12      -0.2867
      5  CB        -7.2680   31.0660   55.3840 C.3    12  ARG12       0.0307
      6  CG        -8.5020   30.3140   55.8780 C.3    12  ARG12       0.0489
      7  CD        -8.3970   29.7090   57.2710 C.3    12  ARG12       0.2205
      8  NE        -7.8910   30.6840   58.2310 N.pl3  12  ARG12      -0.0865
      9  CZ        -8.6260   31.6430   58.8100 C.cat  12  ARG12       0.5346
     10  NH1       -9.9340   31.7560   58.5500 N.pl3  12  ARG12       0.1354
     11  NH2       -8.0490   32.4900   59.6640 N.pl3  12  ARG12       0.1354
     12  N          0.9390   26.6460   59.8500 N.3    99  SER99      -0.1217
     13  CA         0.9910   26.9520   61.2820 C.3    99  SER99       0.1889
     14  C         -0.1580   26.4030   62.1370 C.2    99  SER99       0.2288
     15  O         -1.3350   26.7070   61.8860 O.2    99  SER99      -0.2866
     16  CB         1.0230   28.4870   61.4460 C.3    99  SER99       0.2089
     17  OG         0.5950   28.9120   62.7240 O.3    99  SER99      -0.2183
     18  N         -2.2720   26.4210   65.6260 N.3   101  PHE101     -0.1241
     19  CA        -2.6090   27.4660   66.5720 C.3   101  PHE101      0.1605
     20  C         -3.7130   27.0340   67.5430 C.2   101  PHE101      0.2264
     21  O         -4.8990   27.0430   67.1900 O.2   101  PHE101     -0.2867
     22  CB        -3.0200   28.7120   65.7750 C.3   101  PHE101      0.0534
     23  CG        -3.5450   29.8610   66.6130 C.ar  101  PHE101     -0.0203
     24  CD1       -2.6920   30.6170   67.4070 C.ar  101  PHE101     -0.0042
     25  CD2       -4.8940   30.2000   66.5670 C.ar  101  PHE101     -0.0042
     26  CE1       -3.1710   31.6680   68.1470 C.ar  101  PHE101     -0.0003
     27  CE2       -5.3900   31.2650   67.3160 C.ar  101  PHE101     -0.0003
     28  CZ        -4.5300   32.0010   68.1080 C.ar  101  PHE101     -0.0000
     29  N          3.7540   37.1110   63.6250 N.3   159  ASP159     -0.1239
     30  CA         2.5850   37.5820   64.3580 C.3   159  ASP159      0.1674
     31  C          2.8350   38.9650   64.9340 C.2   159  ASP159      0.2266
     32  O          3.7480   39.1530   65.7260 O.2   159  ASP159     -0.2867
     33  CB         2.2760   36.5970   65.4810 C.3   159  ASP159      0.1410
     34  CG         0.8770   36.7400   66.0380 C.2   159  ASP159      0.3668
     35  OD1        0.3800   37.8800   66.2400 O.co2 159  ASP159     -0.2456
     36  OD2        0.2050   35.7280   66.3270 O.co2 159  ASP159     -0.2456
     37  N          1.0970   40.5850   67.0910 N.3   161  MET161     -0.1245
     38  CA         0.6660   40.6660   68.4810 C.3   161  MET161      0.1570
     39  C          1.4480   39.8570   69.5240 C.2   161  MET161      0.2261
     40  O          1.0910   39.8930   70.7010 O.2   161  MET161     -0.2867
     41  CB        -0.8080   40.2510   68.5780 C.3   161  MET161      0.0387
     42  CG        -1.7560   41.1260   67.8230 C.3   161  MET161      0.0595
     43  SD        -1.4560   42.8400   68.1570 S.3   161  MET161     -0.1393
     44  CE        -2.0970   43.0020   69.8140 C.3   161  MET161      0.0692
     45  N         -1.1980   36.3030   73.6550 N.3   166  LEU166     -0.1245
     46  CA        -2.5440   35.8260   73.8420 C.3   166  LEU166      0.1561
     47  C         -2.5030   34.8660   75.0290 C.2   166  LEU166      0.2260
     48  O         -1.7320   33.9060   75.0180 O.2   166  LEU166     -0.2867
     49  CB        -3.0030   35.1100   72.5700 C.3   166  LEU166      0.0270
     50  CG        -4.5050   34.9110   72.3130 C.3   166  LEU166      0.0019
     51  CD1       -5.3440   36.2080   72.4750 C.3   166  LEU166      0.0001
     52  CD2       -4.6950   34.2790   70.9400 C.3   166  LEU166      0.0001
     53  N         -1.4690   30.7590   75.1530 N.3   169  TYR169     -0.1241
     54  CA        -0.8770   30.2640   73.9150 C.3   169  TYR169      0.1605
     55  C          0.6590   30.2690   73.9190 C.2   169  TYR169      0.2264
     56  O          1.2870   30.5190   72.8720 O.2   169  TYR169     -0.2867
     57  CB        -1.4080   31.0850   72.7390 C.3   169  TYR169      0.0534
     58  CG        -2.8670   30.8280   72.4040 C.ar  169  TYR169     -0.0201
     59  CD1       -3.8910   31.3860   73.1650 C.ar  169  TYR169     -0.0009
     60  CD2       -3.2170   30.0440   71.3210 C.ar  169  TYR169     -0.0009
     61  CE1       -5.2260   31.1590   72.8650 C.ar  169  TYR169      0.0417
     62  CE2       -4.5460   29.8040   71.0050 C.ar  169  TYR169      0.0417
     63  CZ        -5.5550   30.3660   71.7840 C.ar  169  TYR169      0.1957
     64  OH        -6.8970   30.1540   71.4860 O.3   169  TYR169     -0.2866
     65  N          2.8920   28.4480   71.1210 N.3   172  TYR172     -0.1241
     66  CA         2.6710   29.1250   69.8530 C.3   172  TYR172      0.1605
     67  C          3.4370   30.4320   69.8320 C.2   172  TYR172      0.2264
     68  O          4.1370   30.7430   68.8540 O.2   172  TYR172     -0.2867
     69  CB         1.1950   29.4110   69.6190 C.3   172  TYR172      0.0534
     70  CG         0.9600   30.4420   68.5280 C.ar  172  TYR172     -0.0201
     71  CD1        0.9070   30.0590   67.1710 C.ar  172  TYR172     -0.0009
     72  CD2        0.7800   31.7970   68.8450 C.ar  172  TYR172     -0.0009
     73  CE1        0.6920   31.0090   66.1530 C.ar  172  TYR172      0.0417
     74  CE2        0.5580   32.7490   67.8400 C.ar  172  TYR172      0.0417
     75  CZ         0.5120   32.3430   66.4980 C.ar  172  TYR172      0.1957
     76  OH         0.3070   33.2630   65.5050 O.3   172  TYR172     -0.2866
     77  N          6.6080   31.4860   67.4250 N.3   176  LYS176     -0.1245
     78  CA         6.6800   32.6920   66.5970 C.3   176  LYS176      0.1561
     79  C          7.9200   33.5290   66.9030 C.2   176  LYS176      0.2260
     80  O          8.5120   34.1160   66.0020 O.2   176  LYS176     -0.2867
     81  CB         5.3930   33.5300   66.6920 C.3   176  LYS176      0.0271
     82  CG         4.2070   32.9180   65.9590 C.3   176  LYS176      0.0035
     83  CD         4.5500   32.5410   64.5280 C.3   176  LYS176      0.0206
     84  CE         3.3000   32.6150   63.6640 C.3   176  LYS176      0.1093
     85  NZ         3.2920   31.6100   62.6050 N.3   176  LYS176     -0.1314
     86  N         -2.2900   40.7490   62.3260 N.3   203  GLY203     -0.1210
     87  CA        -2.8740   40.9630   63.6420 C.3   203  GLY203      0.1956
     88  C         -4.1250   40.0920   63.7590 C.2   203  GLY203      0.2612
     89  O         -4.1120   39.0300   64.4030 O.2   203  GLY203     -0.2717
     90  N         -5.2100   40.5590   63.1490 N.am  204  LEU204     -0.1965
     91  CA        -6.4490   39.7910   63.0600 C.3   204  LEU204      0.1728
     92  C         -6.8750   39.7330   61.5880 C.2   204  LEU204      0.2616
     93  O         -7.2650   40.7560   61.0130 O.2   204  LEU204     -0.2715
     94  CB        -7.5620   40.3910   63.9290 C.3   204  LEU204      0.0311
     95  CG        -7.3840   40.4640   65.4530 C.3   204  LEU204      0.0022
     96  CD1       -8.6230   41.0850   66.0900 C.3   204  LEU204      0.0001
     97  CD2       -7.0580   39.1030   66.0820 C.3   204  LEU204      0.0001
     98  N         -6.7620   38.5550   60.9740 N.am  205  SER205     -0.1950
     99  CA        -7.1520   38.3620   59.5630 C.3   205  SER205      0.1924
    100  C         -8.0910   37.1940   59.3710 C.2   205  SER205      0.2314
    101  O         -7.8290   36.1020   59.8700 O.2   205  SER205     -0.2863
    102  CB        -5.9470   38.1260   58.6620 C.3   205  SER205      0.2116
    103  OG        -4.9760   39.1110   58.8460 O.3   205  SER205     -0.2180
    104  N        -10.8490   36.3680   60.6450 N.3   207  LEU207     -0.1231
    105  CA       -11.1230   35.7940   61.9710 C.3   207  LEU207      0.1693
    106  C        -12.2180   34.7260   61.9020 C.2   207  LEU207      0.2591
    107  O        -13.2970   34.9650   61.3350 O.2   207  LEU207     -0.2718
    108  CB       -11.4670   36.9060   62.9850 C.3   207  LEU207      0.0284
    109  CG       -11.5550   36.5970   64.4920 C.3   207  LEU207      0.0019
    110  CD1      -10.1800   36.4080   65.1480 C.3   207  LEU207      0.0001
    111  CD2      -12.3630   37.6510   65.2490 C.3   207  LEU207      0.0001
    112  N        -11.9320   33.5500   62.4600 N.am  208  VAL208     -0.1980
    113  CA       -12.8960   32.4460   62.4240 C.3   208  VAL208      0.1595
    114  C        -14.1150   32.7500   63.3160 C.2   208  VAL208      0.2287
    115  O        -13.9650   33.1110   64.4840 O.2   208  VAL208     -0.2864
    116  CB       -12.2380   31.0760   62.7320 C.3   208  VAL208      0.0276
    117  CG1      -13.2770   29.9750   62.8020 C.3   208  VAL208      0.0022
    118  CG2      -11.2140   30.7280   61.6580 C.3   208  VAL208      0.0022
    119  N        -16.5200   30.8020   64.6230 N.3   210  ASP210     -0.1225
    120  CA       -17.0600   29.6890   65.4110 C.3   210  ASP210      0.1805
    121  C        -17.2440   30.1010   66.8950 C.2   210  ASP210      0.2597
    122  O        -16.6110   29.5360   67.8010 O.2   210  ASP210     -0.2718
    123  CB       -16.1320   28.4630   65.2780 C.3   210  ASP210      0.1424
    124  CG       -14.8210   28.6020   66.0980 C.2   210  ASP210      0.3668
    125  OD1      -14.1560   29.6730   66.0220 O.co2 210  ASP210     -0.2456
    126  OD2      -14.3930   27.6870   66.8570 O.co2 210  ASP210     -0.2456
    127  N        -18.1030   31.0950   67.1340 N.am  211  MET211     -0.1979
    128  CA       -18.3640   31.6380   68.4760 C.3   211  MET211      0.1605
    129  C        -19.6130   32.5210   68.4100 C.2   211  MET211      0.2287
    130  O        -20.1110   32.7630   67.3130 O.2   211  MET211     -0.2864
    131  CB       -17.1700   32.4820   68.9210 C.3   211  MET211      0.0413
    132  CG       -16.8940   33.6570   67.9910 C.3   211  MET211      0.0598
    133  SD       -15.4030   34.5360   68.3940 S.3   211  MET211     -0.1393
    134  CE       -14.1630   33.5370   67.5770 C.3   211  MET211      0.0692
    135  N        -14.0920   41.1520   69.2610 N.3   219  HIS219     -0.1241
    136  CA       -12.6930   41.0800   68.8900 C.3   219  HIS219      0.1621
    137  C        -12.4030   42.0930   67.7840 C.2   219  HIS219      0.2264
    138  O        -11.6460   43.0370   67.9920 O.2   219  HIS219     -0.2867
    139  CB       -12.3260   39.6670   68.4710 C.3   219  HIS219      0.0745
    140  CG       -12.1850   38.7190   69.6210 C.ar  219  HIS219      0.0817
    141  ND1      -13.2660   38.1120   70.2260 N.ar  219  HIS219     -0.2268
    142  CD2      -11.0880   38.2710   70.2790 C.ar  219  HIS219      0.1154
    143  CE1      -12.8410   37.3290   71.2030 C.ar  219  HIS219      0.1986
    144  NE2      -11.5230   37.4090   71.2570 N.ar  219  HIS219     -0.2212
    145  N         -3.5280   47.4140   65.6850 N.3   261  TYR261     -0.1241
    146  CA        -3.8870   46.5990   66.8440 C.3   261  TYR261      0.1605
    147  C         -2.7860   46.5730   67.8960 C.2   261  TYR261      0.2264
    148  O         -3.0790   46.6770   69.0810 O.2   261  TYR261     -0.2867
    149  CB        -4.2480   45.1630   66.4180 C.3   261  TYR261      0.0534
    150  CG        -5.0300   44.3680   67.4560 C.ar  261  TYR261     -0.0201
    151  CD1       -5.8000   45.0010   68.4400 C.ar  261  TYR261     -0.0009
    152  CD2       -4.9840   42.9810   67.4680 C.ar  261  TYR261     -0.0009
    153  CE1       -6.5020   44.2670   69.3970 C.ar  261  TYR261      0.0417
    154  CE2       -5.6870   42.2500   68.4190 C.ar  261  TYR261      0.0417
    155  CZ        -6.4360   42.8970   69.3660 C.ar  261  TYR261      0.1957
    156  OH        -7.1200   42.1430   70.2810 O.3   261  TYR261     -0.2866
@<TRIPOS>BOND
     1     4     3    2
     2     1     2    1
     3     3     2    1
     4     2     5    1
     5     5     6    1
     6     6     7    1
     7     7     8    1
     8     8     9    2
     9    10     9    1
    10   102   103    1
    11   102    99    1
    12     9    11    1
    13   100    99    1
    14   100   101    2
    15    99    98    1
    16    12    13    1
    17   104   105    1
    18    98    92   am
    19    93    92    2
    20    13    16    1
    21    13    14    1
    22   107   106    2
    23    16    17    1
    24    92    91    1
    25   118   116    1
    26    15    14    2
    27   106   105    1
    28   106   112   am
    29   105   108    1
    30    86    87    1
    31   113   112    1
    32   113   116    1
    33   113   114    1
    34    85    84    1
    35   116   117    1
    36   108   109    1
    37    91    90    1
    38    91    94    1
    39    90    88   am
    40   114   115    2
    41    29    30    1
    42    87    88    1
    43    84    83    1
    44    88    89    2
    45    94    95    1
    46    30    31    1
    47    30    33    1
    48   109   110    1
    49   109   111    1
    50    83    82    1
    51   119   120    1
    52    31    32    2
    53   123   120    1
    54   123   124    1
    55   120   121    1
    56    95    97    1
    57    95    96    1
    58    33    34    1
    59    76    75    1
    60    18    19    1
    61   145   146    1
    62    22    19    1
    63    22    23    1
    64    82    81    1
    65    80    79    2
    66   125   124   ar
    67    34    35   ar
    68    34    36   ar
    69   124   126   ar
    70    73    75   ar
    71    73    71   ar
    72   149   146    1
    73   149   150    1
    74    75    74   ar
    75    25    23   ar
    76    25    27   ar
    77    19    20    1
    78    78    81    1
    79    78    79    1
    80    78    77    1
    81    23    24   ar
    82   146   147    1
    83   121   127   am
    84   121   122    2
    85    37    38    1
    86   127   128    1
    87    71    70   ar
    88    21    20    2
    89   130   129    2
    90    27    28   ar
    91    24    26   ar
    92   150   152   ar
    93   150   151   ar
    94   152   154   ar
    95   134   133    1
    96   137   138    2
    97   137   136    1
    98    42    43    1
    99    42    41    1
   100    74    72   ar
   101   147   148    2
   102   132   133    1
   103   132   131    1
   104    28    26   ar
   105    43    44    1
   106   129   128    1
   107   154   155   ar
   108   151   153   ar
   109   139   136    1
   110   139   140    1
   111   128   131    1
   112    38    41    1
   113    38    39    1
   114    70    72   ar
   115    70    69    1
   116    68    67    2
   117   136   135    1
   118   155   153   ar
   119   155   156    1
   120    39    40    2
   121    69    66    1
   122   140   141   ar
   123   140   142   ar
   124    67    66    1
   125    66    65    1
   126   141   143   ar
   127   142   144   ar
   128    52    50    1
   129    62    60   ar
   130    62    63   ar
   131   143   144   ar
   132    60    58   ar
   133    64    63    1
   134    63    61   ar
   135    50    51    1
   136    50    49    1
   137    58    57    1
   138    58    59   ar
   139    49    46    1
   140    57    54    1
   141    61    59   ar
   142    56    55    2
   143    45    46    1
   144    46    47    1
   145    54    55    1
   146    54    53    1
   147    48    47    2
