@<TRIPOS>MOLECULE
tmp/2bfpB01.pdb
 98 91 0 0 0
SMALL
GASTEIGER

@<TRIPOS>ATOM
      1  N         30.6260   28.6910   85.1530 N.3    13  ARG13      -0.1245
      2  CA        30.4200   29.9750   84.4890 C.3    13  ARG13       0.1563
      3  C         29.2540   30.7650   85.0670 C.2    13  ARG13       0.2260
      4  O         29.1880   30.9110   86.2870 O.2    13  ARG13      -0.2867
      5  CB        30.3460   29.7720   82.9710 C.3    13  ARG13       0.0307
      6  CG        31.7080   29.4030   82.3670 C.3    13  ARG13       0.0489
      7  CD        31.6480   28.6270   81.0570 C.3    13  ARG13       0.2205
      8  NE        31.0300   29.4270   80.0110 N.pl3  13  ARG13      -0.0865
      9  CZ        31.6160   30.4800   79.4450 C.cat  13  ARG13       0.5346
     10  NH1       32.8340   30.8340   79.8230 N.pl3  13  ARG13       0.1354
     11  NH2       30.9930   31.1920   78.5190 N.pl3  13  ARG13       0.1354
     12  N         22.0730   25.7780   78.6700 N.3   100  SER100     -0.1217
     13  CA        21.9220   26.0770   77.2550 C.3   100  SER100      0.1889
     14  C         23.0230   25.5120   76.3930 C.2   100  SER100      0.2288
     15  O         24.1900   25.6500   76.7310 O.2   100  SER100     -0.2866
     16  CB        21.8680   27.6000   77.0920 C.3   100  SER100      0.2089
     17  OG        22.3570   28.0760   75.8540 O.3   100  SER100     -0.2183
     18  N         25.0110   25.5760   72.7080 N.3   102  PHE102     -0.1241
     19  CA        25.3540   26.6390   71.7780 C.3   102  PHE102      0.1605
     20  C         26.4890   26.1870   70.8640 C.2   102  PHE102      0.2264
     21  O         27.6140   25.9990   71.3110 O.2   102  PHE102     -0.2867
     22  CB        25.8170   27.8400   72.6170 C.3   102  PHE102      0.0534
     23  CG        26.4530   28.9600   71.8310 C.ar  102  PHE102     -0.0203
     24  CD1       25.6670   29.8380   71.1090 C.ar  102  PHE102     -0.0042
     25  CD2       27.8300   29.1740   71.8700 C.ar  102  PHE102     -0.0042
     26  CE1       26.2310   30.9320   70.4440 C.ar  102  PHE102     -0.0003
     27  CE2       28.4140   30.2470   71.1930 C.ar  102  PHE102     -0.0003
     28  CZ        27.6130   31.1290   70.4660 C.ar  102  PHE102     -0.0000
     29  N         19.5010   36.2990   75.2800 N.3   159  ASP159     -0.1239
     30  CA        20.7410   36.7210   74.6310 C.3   159  ASP159      0.1674
     31  C         20.5570   38.1290   74.0960 C.2   159  ASP159      0.2266
     32  O         19.7420   38.3570   73.2210 O.2   159  ASP159     -0.2867
     33  CB        21.0420   35.7510   73.4810 C.3   159  ASP159      0.1410
     34  CG        22.4150   35.9560   72.8370 C.2   159  ASP159      0.3668
     35  OD1       22.9340   37.0930   72.7400 O.co2 159  ASP159     -0.2456
     36  OD2       23.0400   35.0090   72.3220 O.co2 159  ASP159     -0.2456
     37  N         24.3730   35.8680   65.0980 N.3   166  LEU166     -0.1245
     38  CA        25.7130   35.3630   64.9760 C.3   166  LEU166      0.1561
     39  C         25.6760   34.4520   63.7510 C.2   166  LEU166      0.2260
     40  O         24.9050   33.4920   63.7050 O.2   166  LEU166     -0.2867
     41  CB        25.9860   34.5590   66.2360 C.3   166  LEU166      0.0270
     42  CG        27.4080   34.3160   66.7020 C.3   166  LEU166      0.0019
     43  CD1       28.2580   35.5950   66.6630 C.3   166  LEU166      0.0001
     44  CD2       27.3310   33.6830   68.0800 C.3   166  LEU166      0.0001
     45  N         20.1840   27.9010   67.3020 N.3   172  TYR172     -0.1241
     46  CA        20.3840   28.5270   68.6100 C.3   172  TYR172      0.1605
     47  C         19.6220   29.8530   68.6970 C.2   172  TYR172      0.2264
     48  O         18.9060   30.0940   69.6670 O.2   172  TYR172     -0.2867
     49  CB        21.8630   28.7580   68.9040 C.3   172  TYR172      0.0534
     50  CG        22.1050   29.7700   70.0060 C.ar  172  TYR172     -0.0201
     51  CD1       22.1670   29.3610   71.3410 C.ar  172  TYR172     -0.0009
     52  CD2       22.2920   31.1190   69.7170 C.ar  172  TYR172     -0.0009
     53  CE1       22.3880   30.2550   72.3560 C.ar  172  TYR172      0.0417
     54  CE2       22.5100   32.0310   70.7310 C.ar  172  TYR172      0.0417
     55  CZ        22.5440   31.5930   72.0530 C.ar  172  TYR172      0.1957
     56  OH        22.7270   32.4870   73.0880 O.3   172  TYR172     -0.2866
     57  N         16.4960   30.9310   71.2360 N.3   176  LYS176     -0.1245
     58  CA        16.4830   32.0670   72.1610 C.3   176  LYS176      0.1561
     59  C         15.2580   32.9510   71.9130 C.2   176  LYS176      0.2260
     60  O         14.6850   33.4990   72.8560 O.2   176  LYS176     -0.2867
     61  CB        17.7770   32.8830   72.1200 C.3   176  LYS176      0.0271
     62  CG        18.9790   32.2160   72.7640 C.3   176  LYS176      0.0035
     63  CD        18.7320   31.8760   74.2150 C.3   176  LYS176      0.0206
     64  CE        20.0020   31.3300   74.8560 C.3   176  LYS176      0.1093
     65  NZ        19.8260   30.9420   76.2700 N.3   176  LYS176     -0.1314
     66  N         25.5360   39.8520   76.6810 N.3   203  GLY203     -0.1210
     67  CA        26.0860   40.1770   75.3800 C.3   203  GLY203      0.1956
     68  C         27.2680   39.2400   75.2620 C.2   203  GLY203      0.2612
     69  O         27.1440   38.1230   74.7670 O.2   203  GLY203     -0.2717
     70  N         28.4250   39.6820   75.7410 N.am  204  LEU204     -0.1965
     71  CA        29.6060   38.8200   75.7690 C.3   204  LEU204      0.1728
     72  C         30.0150   38.6800   77.2200 C.2   204  LEU204      0.2616
     73  O         30.3490   39.6780   77.8480 O.2   204  LEU204     -0.2715
     74  CB        30.7440   39.4280   74.9500 C.3   204  LEU204      0.0311
     75  CG        30.5640   39.6810   73.4520 C.3   204  LEU204      0.0022
     76  CD1       31.8820   40.1460   72.8820 C.3   204  LEU204      0.0001
     77  CD2       30.0230   38.4580   72.6890 C.3   204  LEU204      0.0001
     78  N         29.9460   37.4650   77.7560 N.am  205  SER205     -0.1950
     79  CA        30.2920   37.2060   79.1480 C.3   205  SER205      0.1924
     80  C         31.2570   36.0480   79.2880 C.2   205  SER205      0.2314
     81  O         30.9850   34.9760   78.7560 O.2   205  SER205     -0.2863
     82  CB        29.0400   36.8970   79.9580 C.3   205  SER205      0.2116
     83  OG        28.1740   38.0070   79.9350 O.3   205  SER205     -0.2180
     84  N         33.8340   35.3910   77.9210 N.3   207  LEU207     -0.1231
     85  CA        33.9910   34.9320   76.5480 C.3   207  LEU207      0.1693
     86  C         34.9840   33.7930   76.3510 C.2   207  LEU207      0.2591
     87  O         36.1570   33.9180   76.7070 O.2   207  LEU207     -0.2718
     88  CB        34.3440   36.1160   75.6310 C.3   207  LEU207      0.0284
     89  CG        34.2090   35.8680   74.1220 C.3   207  LEU207      0.0019
     90  CD1       32.7450   35.8030   73.7050 C.3   207  LEU207      0.0001
     91  CD2       34.9730   36.9000   73.2820 C.3   207  LEU207      0.0001
     92  N         34.5030   32.6980   75.7570 N.am  208  VAL208     -0.1980
     93  CA        35.3680   31.5560   75.4320 C.3   208  VAL208      0.1595
     94  C         36.4840   32.0730   74.5160 C.2   208  VAL208      0.2287
     95  O         36.2250   32.8140   73.5520 O.2   208  VAL208     -0.2864
     96  CB        34.6140   30.3940   74.7560 C.3   208  VAL208      0.0276
     97  CG1       35.6050   29.3120   74.2810 C.3   208  VAL208      0.0022
     98  CG2       33.5890   29.7800   75.7160 C.3   208  VAL208      0.0022
@<TRIPOS>BOND
     1    40    39    2
     2    39    38    1
     3    38    37    1
     4    38    41    1
     5    41    42    1
     6    43    42    1
     7    42    44    1
     8    45    46    1
     9    46    47    1
    10    46    49    1
    11    47    48    2
    12    49    50    1
    13    52    50   ar
    14    52    54   ar
    15    50    51   ar
    16    26    28   ar
    17    26    24   ar
    18    28    27   ar
    19    54    55   ar
    20    20    21    2
    21    20    19    1
    22    24    23   ar
    23    27    25   ar
    24    57    58    1
    25    51    53   ar
    26    19    22    1
    27    19    18    1
    28    23    25   ar
    29    23    22    1
    30    59    58    1
    31    59    60    2
    32    55    53   ar
    33    55    56    1
    34    61    58    1
    35    61    62    1
    36    36    34   ar
    37    77    75    1
    38    35    34   ar
    39    62    63    1
    40    34    33    1
    41    76    75    1
    42    32    31    2
    43    91    89    1
    44    75    74    1
    45    33    30    1
    46    95    94    2
    47    90    89    1
    48    31    30    1
    49    89    88    1
    50    63    64    1
    51    97    96    1
    52    94    93    1
    53    30    29    1
    54    96    93    1
    55    96    98    1
    56    69    68    2
    57    64    65    1
    58    74    71    1
    59    68    67    1
    60    68    70   am
    61    67    66    1
    62    93    92    1
    63    88    85    1
    64    70    71    1
    65    92    86   am
    66    71    72    1
    67    17    16    1
    68    86    85    1
    69    86    87    2
    70    14    15    2
    71    14    13    1
    72    85    84    1
    73    16    13    1
    74    72    78   am
    75    72    73    2
    76    13    12    1
    77    78    79    1
    78    11     9    1
    79    81    80    2
    80    79    80    1
    81    79    82    1
    82     9    10    1
    83     9     8    2
    84    83    82    1
    85     8     7    1
    86     7     6    1
    87     6     5    1
    88     5     2    1
    89     2     3    1
    90     2     1    1
    91     3     4    2
