@<TRIPOS>MOLECULE
tmp/2bfrA00.pdb
 162 156 0 0 0
SMALL
GASTEIGER

@<TRIPOS>ATOM
      1  N         11.7810   82.1470    7.1920 N.3    18  GLY18      -0.1210
      2  CA        13.1420   82.2760    7.6660 C.3    18  GLY18       0.1956
      3  C         14.1730   81.5800    6.8050 C.2    18  GLY18       0.2612
      4  O         13.9080   81.2050    5.6600 O.2    18  GLY18      -0.2717
      5  N         15.3610   81.4150    7.3760 N.am   19  ASP19      -0.1959
      6  CA        16.4830   80.7720    6.7060 C.3    19  ASP19       0.1840
      7  C         16.4560   79.2720    7.0170 C.2    19  ASP19       0.2621
      8  O         16.6060   78.8720    8.1740 O.2    19  ASP19      -0.2715
      9  CB        17.7830   81.4010    7.2110 C.3    19  ASP19       0.1450
     10  CG        19.0040   80.8940    6.4830 C.2    19  ASP19       0.3671
     11  OD1       20.1080   81.3870    6.7920 O.co2  19  ASP19      -0.2456
     12  OD2       18.8640   80.0110    5.6080 O.co2  19  ASP19      -0.2456
     13  N         16.2650   78.4440    5.9920 N.am   20  ILE20      -0.1977
     14  CA        16.2030   77.0050    6.2140 C.3    20  ILE20       0.1596
     15  C         17.4460   76.4480    6.9070 C.2    20  ILE20       0.2287
     16  O         17.3510   75.5040    7.6900 O.2    20  ILE20      -0.2864
     17  CB        15.9710   76.2330    4.8940 C.3    20  ILE20       0.0276
     18  CG1       15.5440   74.7960    5.2040 C.3    20  ILE20       0.0022
     19  CG2       17.2320   76.2350    4.0520 C.3    20  ILE20       0.0022
     20  CD1       15.0560   74.0160    3.9940 C.3    20  ILE20       0.0001
     21  N         17.0320   72.8760   -2.9960 N.3    31  ALA31      -0.1231
     22  CA        16.4170   72.9550   -4.3200 C.3    31  ALA31       0.1694
     23  C         17.5500   73.1450   -5.3200 C.2    31  ALA31       0.2591
     24  O         17.7410   74.2300   -5.8740 O.2    31  ALA31      -0.2718
     25  CB        15.4550   74.1250   -4.3820 C.3    31  ALA31       0.0304
     26  N         18.2930   72.0670   -5.5430 N.am   32  ALA32      -0.1980
     27  CA        19.4460   72.0770   -6.4290 C.3    32  ALA32       0.1597
     28  C         19.1200   71.8440   -7.8920 C.2    32  ALA32       0.2287
     29  O         18.0040   71.4650   -8.2400 O.2    32  ALA32      -0.2864
     30  CB        20.4460   71.0270   -5.9570 C.3    32  ALA32       0.0319
     31  N         23.8190   79.6580   -6.6610 N.3    40  GLY40      -0.1210
     32  CA        22.9860   80.7170   -6.1210 C.3    40  GLY40       0.1956
     33  C         21.7690   80.1890   -5.3900 C.2    40  GLY40       0.2612
     34  O         21.7020   79.0110   -5.0430 O.2    40  GLY40      -0.2717
     35  N         20.8050   81.0680   -5.1450 N.am   41  GLY41      -0.1942
     36  CA        19.5920   80.6600   -4.4650 C.3    41  GLY41       0.2014
     37  C         19.8370   79.9610   -3.1420 C.2    41  GLY41       0.2639
     38  O         20.8820   80.1420   -2.5120 O.2    41  GLY41      -0.2714
     39  N         18.8670   79.1570   -2.7200 N.am   42  VAL42      -0.1963
     40  CA        18.9660   78.4400   -1.4610 C.3    42  VAL42       0.1727
     41  C         20.1160   77.4380   -1.4860 C.2    42  VAL42       0.2616
     42  O         20.7030   77.1320   -0.4460 O.2    42  VAL42      -0.2715
     43  CB        17.6360   77.7280   -1.1240 C.3    42  VAL42       0.0290
     44  CG1       17.3680   76.5980   -2.1110 C.3    42  VAL42       0.0023
     45  CG2       17.6740   77.2250    0.3070 C.3    42  VAL42       0.0023
     46  N         20.4500   76.9440   -2.6760 N.am   43  ALA43      -0.1977
     47  CA        21.5520   75.9980   -2.8220 C.3    43  ALA43       0.1597
     48  C         22.8470   76.6430   -2.3220 C.2    43  ALA43       0.2287
     49  O         23.6210   76.0230   -1.5910 O.2    43  ALA43      -0.2864
     50  CB        21.6990   75.5860   -4.2730 C.3    43  ALA43       0.0319
     51  N         23.1390   79.3250   -0.2670 N.3    45  ALA45      -0.1245
     52  CA        23.0130   79.5530    1.1660 C.3    45  ALA45       0.1562
     53  C         23.3600   78.2870    1.9420 C.2    45  ALA45       0.2260
     54  O         24.1550   78.3200    2.8850 O.2    45  ALA45      -0.2867
     55  CB        21.5950   79.9970    1.5030 C.3    45  ALA45       0.0290
     56  N         14.0540   70.2870   -8.8420 N.3   100  GLY100     -0.1225
     57  CA        12.7270   70.5760   -9.3490 C.3   100  GLY100      0.1811
     58  C         12.7900   70.9760  -10.8100 C.2   100  GLY100      0.2280
     59  O         13.8810   71.1940  -11.3410 O.2   100  GLY100     -0.2866
     60  N         12.4380   73.7920    1.1400 N.3   137  PRO137     -0.2102
     61  CA        12.4740   75.1770    0.6630 C.3   137  PRO137      0.1504
     62  C         11.4010   75.1760   -0.4360 C.2   137  PRO137      0.2576
     63  O         10.8500   74.1190   -0.7470 O.2   137  PRO137     -0.2718
     64  CB        13.8670   75.2900    0.0740 C.3   137  PRO137      0.0282
     65  CG        13.9980   73.9540   -0.6060 C.3   137  PRO137      0.0208
     66  CD        13.4630   72.9880    0.4450 C.3   137  PRO137      0.0893
     67  N         11.1060   76.3260   -1.0310 N.am  138  ALA138     -0.1966
     68  CA        10.1020   76.3740   -2.0910 C.3   138  ALA138      0.1728
     69  C         10.7360   75.9550   -3.4160 C.2   138  ALA138      0.2616
     70  O         11.0380   76.7930   -4.2640 O.2   138  ALA138     -0.2715
     71  CB         9.5280   77.7740   -2.2010 C.3   138  ALA138      0.0334
     72  N         10.9250   74.6500   -3.5900 N.am  139  VAL139     -0.1963
     73  CA        11.5450   74.1130   -4.7980 C.3   139  VAL139      0.1727
     74  C         10.9560   74.6580   -6.0910 C.2   139  VAL139      0.2617
     75  O          9.7550   74.5490   -6.3250 O.2   139  VAL139     -0.2715
     76  CB        11.4480   72.5700   -4.8450 C.3   139  VAL139      0.0290
     77  CG1       12.1950   72.0400   -6.0620 C.3   139  VAL139      0.0023
     78  CG2       12.0170   71.9720   -3.5720 C.3   139  VAL139      0.0023
     79  N         11.8240   75.2410   -6.9190 N.am  140  SER140     -0.1936
     80  CA        11.4590   75.8020   -8.2220 C.3   140  SER140      0.2055
     81  C         10.7050   77.1290   -8.2130 C.2   140  SER140      0.2643
     82  O         10.3260   77.6290   -9.2720 O.2   140  SER140     -0.2714
     83  CB        10.6580   74.7780   -9.0340 C.3   140  SER140      0.2130
     84  OG        11.4730   73.6840   -9.4320 O.3   140  SER140     -0.2179
     85  N         10.4960   77.7090   -7.0360 N.am  141  ALA141     -0.1963
     86  CA         9.7730   78.9750   -6.9470 C.3   141  ALA141      0.1728
     87  C         10.6830   80.1730   -7.1750 C.2   141  ALA141      0.2617
     88  O         10.2110   81.2930   -7.3550 O.2   141  ALA141     -0.2715
     89  CB         9.0940   79.0970   -5.5890 C.3   141  ALA141      0.0334
     90  N         11.9890   79.9410   -7.1620 N.am  142  GLY142     -0.1940
     91  CA        12.9170   81.0370   -7.3640 C.3   142  GLY142      0.2014
     92  C         13.3440   81.1840   -8.8100 C.2   142  GLY142      0.2639
     93  O         12.5370   81.5070   -9.6840 O.2   142  GLY142     -0.2714
     94  N         14.6250   80.9380   -9.0590 N.am  143  ILE143     -0.1963
     95  CA        15.1970   81.0360  -10.3930 C.3   143  ILE143      0.1727
     96  C         14.4320   80.2270  -11.4450 C.2   143  ILE143      0.2616
     97  O         14.2410   80.6970  -12.5650 O.2   143  ILE143     -0.2715
     98  CB        16.6730   80.5790  -10.3760 C.3   143  ILE143      0.0290
     99  CG1       17.4830   81.4890   -9.4530 C.3   143  ILE143      0.0022
    100  CG2       17.2490   80.6080  -11.7780 C.3   143  ILE143      0.0023
    101  CD1       18.9380   81.0800   -9.3080 C.3   143  ILE143      0.0001
    102  N         13.9910   79.0220  -11.0910 N.am  144  TYR144     -0.1974
    103  CA        13.2710   78.1720  -12.0380 C.3   144  TYR144      0.1639
    104  C         11.8540   78.6370  -12.3890 C.2   144  TYR144      0.2290
    105  O         11.1170   77.9540  -13.0980 O.2   144  TYR144     -0.2864
    106  CB        13.2610   76.7260  -11.5350 C.3   144  TYR144      0.0560
    107  CG        14.6090   76.0430  -11.6830 C.ar  144  TYR144     -0.0198
    108  CD1       15.6260   76.6220  -12.4480 C.ar  144  TYR144     -0.0009
    109  CD2       14.8510   74.8000  -11.1060 C.ar  144  TYR144     -0.0009
    110  CE1       16.8450   75.9780  -12.6370 C.ar  144  TYR144      0.0417
    111  CE2       16.0680   74.1450  -11.2900 C.ar  144  TYR144      0.0417
    112  CZ        17.0570   74.7380  -12.0590 C.ar  144  TYR144      0.1957
    113  OH        18.2420   74.0760  -12.2750 O.3   144  TYR144     -0.2866
    114  N          4.7100   80.2220   -7.2930 N.3   148  LEU148     -0.1245
    115  CA         4.8010   79.8950   -5.8760 C.3   148  LEU148      0.1561
    116  C          3.5790   79.1540   -5.3540 C.2   148  LEU148      0.2260
    117  O          3.7030   78.1250   -4.6920 O.2   148  LEU148     -0.2867
    118  CB         5.0160   81.1660   -5.0510 C.3   148  LEU148      0.0270
    119  CG         5.1530   80.9750   -3.5380 C.3   148  LEU148      0.0019
    120  CD1        6.3680   80.1050   -3.2300 C.3   148  LEU148      0.0001
    121  CD2        5.2890   82.3310   -2.8650 C.3   148  LEU148      0.0001
    122  N          9.8920   76.0050    4.6010 N.3   173  VAL173     -0.1231
    123  CA        10.5100   77.2480    5.0420 C.3   173  VAL173      0.1692
    124  C         10.6120   78.2360    3.8920 C.2   173  VAL173      0.2592
    125  O         11.2580   77.9580    2.8790 O.2   173  VAL173     -0.2718
    126  CB        11.9210   76.9820    5.6200 C.3   173  VAL173      0.0266
    127  CG1       12.5180   78.2660    6.1680 C.3   173  VAL173      0.0020
    128  CG2       11.8370   75.9310    6.7180 C.3   173  VAL173      0.0020
    129  N          9.9590   79.3850    4.0540 N.am  174  ILE174     -0.1966
    130  CA         9.9560   80.4310    3.0370 C.3   174  ILE174      0.1727
    131  C         10.8140   81.5970    3.5100 C.2   174  ILE174      0.2616
    132  O         10.6920   82.0520    4.6510 O.2   174  ILE174     -0.2715
    133  CB         8.5270   80.9270    2.7570 C.3   174  ILE174      0.0290
    134  CG1        7.6190   79.7330    2.4430 C.3   174  ILE174      0.0022
    135  CG2        8.5330   81.9130    1.6010 C.3   174  ILE174      0.0023
    136  CD1        8.0770   78.8880    1.2720 C.3   174  ILE174      0.0001
    137  N         11.6740   82.0780    2.6170 N.am  175  TYR175     -0.1960
    138  CA        12.6030   83.1560    2.9220 C.3   175  TYR175      0.1771
    139  C         11.9950   84.5440    3.1090 C.2   175  TYR175      0.2619
    140  O         12.0510   85.0980    4.2040 O.2   175  TYR175     -0.2715
    141  CB        13.6720   83.2060    1.8340 C.3   175  TYR175      0.0574
    142  CG        14.9860   83.8270    2.2500 C.ar  175  TYR175     -0.0198
    143  CD1       15.6110   83.4570    3.4410 C.ar  175  TYR175     -0.0009
    144  CD2       15.6520   84.7190    1.4060 C.ar  175  TYR175     -0.0009
    145  CE1       16.8730   83.9540    3.7780 C.ar  175  TYR175      0.0417
    146  CE2       16.9110   85.2190    1.7300 C.ar  175  TYR175      0.0417
    147  CZ        17.5190   84.8320    2.9150 C.ar  175  TYR175      0.1957
    148  OH        18.7790   85.3030    3.2190 O.3   175  TYR175     -0.2866
    149  N         11.4220   85.1080    2.0500 N.am  176  ASP176     -0.1971
    150  CA        10.8410   86.4470    2.1330 C.3   176  ASP176      0.1709
    151  C          9.4040   86.4740    2.6480 C.2   176  ASP176      0.2293
    152  O          8.6240   85.5530    2.4060 O.2   176  ASP176     -0.2864
    153  CB        10.9200   87.1410    0.7700 C.3   176  ASP176      0.1436
    154  CG        10.0360   86.4920   -0.2630 C.2   176  ASP176      0.3671
    155  OD1        8.8030   86.5540   -0.0960 O.co2 176  ASP176     -0.2456
    156  OD2       10.5720   85.9200   -1.2370 O.co2 176  ASP176     -0.2456
    157  N          6.3780   86.2250    0.0420 N.3   179  SER179     -0.1217
    158  CA         6.1080   84.8610   -0.3940 C.3   179  SER179      0.1889
    159  C          5.4990   84.0370    0.7280 C.2   179  SER179      0.2288
    160  O          4.6460   83.1830    0.4920 O.2   179  SER179     -0.2866
    161  CB         7.3980   84.1940   -0.8710 C.3   179  SER179      0.2089
    162  OG         7.9750   84.9120   -1.9470 O.3   179  SER179     -0.2183
@<TRIPOS>BOND
     1   105   104    2
     2   110   108   ar
     3   110   112   ar
     4    97    96    2
     5   108   107   ar
     6   104   103    1
     7   113   112    1
     8   112   111   ar
     9   103   106    1
    10   103   102    1
    11   100    98    1
    12   107   106    1
    13   107   109   ar
    14    96   102   am
    15    96    95    1
    16    59    58    2
    17   111   109   ar
    18    58    57    1
    19    95    98    1
    20    95    94    1
    21    98    99    1
    22    93    92    2
    23    99   101    1
    24    84    83    1
    25    57    56    1
    26    82    81    2
    27    94    92   am
    28    83    80    1
    29    92    91    1
    30    29    28    2
    31    80    81    1
    32    80    79    1
    33    81    85   am
    34    28    27    1
    35    91    90    1
    36    88    87    2
    37   114   115    1
    38    87    90   am
    39    87    86    1
    40    85    86    1
    41    86    89    1
    42    79    74   am
    43    31    32    1
    44    27    30    1
    45    27    26    1
    46    75    74    2
    47    32    33    1
    48    74    73    1
    49    77    76    1
    50   115   116    1
    51   115   118    1
    52    24    23    2
    53    26    23   am
    54    33    35   am
    55    33    34    2
    56   116   117    2
    57    23    22    1
    58    35    36    1
    59   118   119    1
    60    76    73    1
    61    76    78    1
    62    73    72    1
    63    36    37    1
    64    25    22    1
    65    22    21    1
    66    50    47    1
    67    70    69    2
    68    72    69   am
    69   119   120    1
    70   119   121    1
    71    69    68    1
    72    37    39   am
    73    37    38    2
    74    47    46    1
    75    47    48    1
    76    39    40    1
    77    46    41   am
    78    48    49    2
    79    71    68    1
    80    44    43    1
    81    68    67    1
    82   162   161    1
    83    41    40    1
    84    41    42    2
    85    40    43    1
    86   156   154   ar
    87    43    45    1
    88    67    62   am
    89   161   158    1
    90    63    62    2
    91    65    64    1
    92    65    66    1
    93    62    61    1
    94   158   157    1
    95   158   159    1
    96    51    52    1
    97   154   155   ar
    98   154   153    1
    99    64    61    1
   100    66    60    1
   101   160   159    2
   102    61    60    1
   103   153   150    1
   104    52    55    1
   105    52    53    1
   106   136   134    1
   107   144   146   ar
   108   144   142   ar
   109   135   133    1
   110   146   147   ar
   111   141   142    1
   112   141   138    1
   113    53    54    2
   114   149   150    1
   115   149   139   am
   116   150   151    1
   117   142   143   ar
   118   152   151    2
   119   134   133    1
   120   137   138    1
   121   137   131   am
   122   133   130    1
   123   125   124    2
   124   147   148    1
   125   147   145   ar
   126   138   139    1
   127   130   131    1
   128   130   129    1
   129   139   140    2
   130   143   145   ar
   131   131   132    2
   132   124   129   am
   133   124   123    1
   134    20    18    1
   135    19    17    1
   136   122   123    1
   137    17    18    1
   138    17    14    1
   139   123   126    1
   140    12    10   ar
   141   126   127    1
   142   126   128    1
   143     4     3    2
   144    13    14    1
   145    13     7   am
   146    14    15    1
   147    10    11   ar
   148    10     9    1
   149     6     7    1
   150     6     9    1
   151     6     5    1
   152     3     5   am
   153     3     2    1
   154    15    16    2
   155     7     8    2
   156     1     2    1
