@<TRIPOS>MOLECULE
tmp/2bfvB00.pdb
 122 120 0 0 0
SMALL
GASTEIGER

@<TRIPOS>ATOM
      1  N        -16.0170    1.1970    4.2490 N.3    31  THR31      -0.1203
      2  CA       -16.6500    2.2630    5.0440 C.3    31  THR31       0.1994
      3  C        -15.9760    3.5980    4.7760 C.2    31  THR31       0.2618
      4  O        -16.3400    4.6270    5.3630 O.2    31  THR31      -0.2717
      5  CB       -16.5130    1.9260    6.5310 C.3    31  THR31       0.1784
      6  OG1      -17.2660    0.7610    6.8360 O.3    31  THR31      -0.2211
      7  CG2      -17.0040    3.0440    7.4500 C.3    31  THR31       0.0376
      8  N        -15.0170    3.5530    3.8790 N.am   32  TYR32      -0.1961
      9  CA       -14.2100    4.7290    3.5720 C.3    32  TYR32       0.1771
     10  C        -14.2690    5.1500    2.1160 C.2    32  TYR32       0.2619
     11  O        -14.3410    4.3070    1.2080 O.2    32  TYR32      -0.2715
     12  CB       -12.7420    4.4420    3.8600 C.3    32  TYR32       0.0574
     13  CG       -12.4290    4.5130    5.3420 C.ar   32  TYR32      -0.0198
     14  CD1      -12.0400    5.7280    5.9050 C.ar   32  TYR32      -0.0009
     15  CD2      -12.5390    3.3640    6.1270 C.ar   32  TYR32      -0.0009
     16  CE1      -11.7640    5.8000    7.2700 C.ar   32  TYR32       0.0417
     17  CE2      -12.2640    3.4360    7.4950 C.ar   32  TYR32       0.0417
     18  CZ       -11.8770    4.6550    8.0660 C.ar   32  TYR32       0.1957
     19  OH       -11.6130    4.7260    9.3960 O.3    32  TYR32      -0.2866
     20  N        -14.2320    6.4610    1.9920 N.am   33  TYR33      -0.1974
     21  CA       -14.1210    7.1420    0.7110 C.3    33  TYR33       0.1639
     22  C        -12.6400    7.0730    0.3410 C.2    33  TYR33       0.2290
     23  O        -11.7640    7.0460    1.2180 O.2    33  TYR33      -0.2864
     24  CB       -14.5350    8.6190    0.8530 C.3    33  TYR33       0.0560
     25  CG       -16.0440    8.8720    1.0420 C.ar   33  TYR33      -0.0198
     26  CD1      -16.8830    7.8810    1.5720 C.ar   33  TYR33      -0.0009
     27  CD2      -16.5890   10.1150    0.6850 C.ar   33  TYR33      -0.0009
     28  CE1      -18.2510    8.1340    1.7490 C.ar   33  TYR33       0.0417
     29  CE2      -17.9560   10.3660    0.8600 C.ar   33  TYR33       0.0417
     30  CZ       -18.7870    9.3770    1.3940 C.ar   33  TYR33       0.1957
     31  OH       -20.1140    9.6240    1.5680 O.3    33  TYR33      -0.2866
     32  N         -5.7150   16.6660   -6.9830 N.3    47  LEU47      -0.1245
     33  CA        -6.6720   15.5930   -6.6830 C.3    47  LEU47       0.1561
     34  C         -7.3100   15.1410   -8.0170 C.2    47  LEU47       0.2260
     35  O         -8.1130   15.8830   -8.6230 O.2    47  LEU47      -0.2867
     36  CB        -7.7100   16.0000   -5.6310 C.3    47  LEU47       0.0270
     37  CG        -8.8520   14.9920   -5.4260 C.3    47  LEU47       0.0019
     38  CD1       -8.3260   13.6930   -4.8090 C.3    47  LEU47       0.0001
     39  CD2       -9.9450   15.6030   -4.5510 C.3    47  LEU47       0.0001
     40  N        -12.1800   11.2220   -6.5100 N.3    50  ALA50      -0.1245
     41  CA       -12.7230   10.8140   -5.1930 C.3    50  ALA50       0.1562
     42  C        -13.8720    9.8300   -5.4480 C.2    50  ALA50       0.2260
     43  O        -14.5720    9.8860   -6.4860 O.2    50  ALA50      -0.2867
     44  CB       -12.9980   12.0550   -4.3650 C.3    50  ALA50       0.0290
     45  N        -17.8110    5.0860   -0.3530 N.3    53  SER53      -0.1217
     46  CA       -17.8370    3.7440    0.2240 C.3    53  SER53       0.1889
     47  C        -18.4690    2.6850   -0.6830 C.2    53  SER53       0.2288
     48  O        -18.0920    1.5200   -0.9060 O.2    53  SER53      -0.2866
     49  CB       -18.6710    3.8010    1.5120 C.3    53  SER53       0.2089
     50  OG       -18.4640    5.0490    2.1660 O.3    53  SER53      -0.2183
     51  N        -17.5300   10.7510   -6.5730 N.3    58  ILE58      -0.1231
     52  CA       -18.0480   11.9730   -5.9540 C.3    58  ILE58       0.1692
     53  C        -17.3010   13.2190   -6.4800 C.2    58  ILE58       0.2592
     54  O        -17.6710   14.3610   -6.1740 O.2    58  ILE58      -0.2718
     55  CB       -17.9540   11.8990   -4.4250 C.3    58  ILE58       0.0266
     56  CG1      -16.5230   11.8410   -3.8930 C.3    58  ILE58       0.0019
     57  CG2      -18.6540   10.6690   -3.8430 C.3    58  ILE58       0.0020
     58  CD1      -16.4640   11.6390   -2.3740 C.3    58  ILE58       0.0001
     59  N        -16.2520   13.0140   -7.2890 N.am   59  TYR59      -0.1976
     60  CA       -15.4870   14.1670   -7.8310 C.3    59  TYR59       0.1639
     61  C        -14.4070   13.7910   -8.8740 C.2    59  TYR59       0.2290
     62  O        -13.6900   12.7910   -8.7230 O.2    59  TYR59      -0.2864
     63  CB       -14.7500   14.8900   -6.7010 C.3    59  TYR59       0.0560
     64  CG       -13.7610   15.9390   -7.2130 C.ar   59  TYR59      -0.0198
     65  CD1      -14.2210   17.2060   -7.5900 C.ar   59  TYR59      -0.0009
     66  CD2      -12.3980   15.6330   -7.3060 C.ar   59  TYR59      -0.0009
     67  CE1      -13.3190   18.1660   -8.0620 C.ar   59  TYR59       0.0417
     68  CE2      -11.4960   16.5930   -7.7790 C.ar   59  TYR59       0.0417
     69  CZ       -11.9570   17.8600   -8.1570 C.ar   59  TYR59       0.1957
     70  OH       -11.0810   18.7940   -8.6170 O.3    59  TYR59      -0.2866
     71  N         -9.6820    9.1620    2.5640 N.3    99  LEU99      -0.1231
     72  CA       -10.3580   10.3850    3.0040 C.3    99  LEU99       0.1693
     73  C        -10.8600   10.1060    4.4270 C.2    99  LEU99       0.2592
     74  O        -11.7350    9.2390    4.6180 O.2    99  LEU99      -0.2718
     75  CB       -11.4930   10.7500    2.0450 C.3    99  LEU99       0.0284
     76  CG       -11.1660   11.2020    0.6370 C.3    99  LEU99       0.0019
     77  CD1      -12.4240   11.6530   -0.0980 C.3    99  LEU99       0.0001
     78  CD2      -10.1690   12.3400    0.7340 C.3    99  LEU99       0.0001
     79  N        -10.2760   10.8070    5.3470 N.am  100  ASN100     -0.1960
     80  CA       -10.6770   10.7100    6.7550 C.3   100  ASN100      0.1819
     81  C        -11.6680   11.8510    6.9810 C.2   100  ASN100      0.2621
     82  O        -11.3930   13.0130    6.6510 O.2   100  ASN100     -0.2715
     83  CB        -9.4410   10.8870    7.6380 C.3   100  ASN100      0.1195
     84  CG        -9.7190   10.6490    9.1180 C.2   100  ASN100      0.2630
     85  OD1      -10.0520   11.5870    9.8390 O.2   100  ASN100     -0.2716
     86  ND2       -9.5990    9.4350    9.6190 N.am  100  ASN100     -0.0877
     87  N        -12.8150   11.5280    7.5250 N.am  101  TYR101     -0.1974
     88  CA       -13.8690   12.5330    7.7030 C.3   101  TYR101      0.1639
     89  C        -13.4650   13.6620    8.6720 C.2   101  TYR101      0.2290
     90  O        -13.6670   14.8510    8.3880 O.2   101  TYR101     -0.2864
     91  CB       -15.1480   11.9190    8.2390 C.3   101  TYR101      0.0560
     92  CG       -16.1640   13.0060    8.5420 C.ar  101  TYR101     -0.0198
     93  CD1      -16.4840   13.9450    7.5550 C.ar  101  TYR101     -0.0009
     94  CD2      -16.7530   13.0720    9.8020 C.ar  101  TYR101     -0.0009
     95  CE1      -17.3950   14.9640    7.8370 C.ar  101  TYR101      0.0417
     96  CE2      -17.6630   14.0940   10.0860 C.ar  101  TYR101      0.0417
     97  CZ       -17.9810   15.0410    9.1040 C.ar  101  TYR101      0.1957
     98  OH       -18.8600   16.0370    9.3870 O.3   101  TYR101     -0.2866
     99  N        -11.1730   15.6290    7.1280 N.3   104  TYR104     -0.1227
    100  CA       -11.9100   16.0940    5.9620 C.3   104  TYR104      0.1736
    101  C        -10.9150   16.3190    4.8390 C.2   104  TYR104      0.2596
    102  O        -10.8230   17.4190    4.2760 O.2   104  TYR104     -0.2718
    103  CB       -12.6590   17.3790    6.2740 C.3   104  TYR104      0.0548
    104  CG       -13.8420   17.5710    5.3350 C.ar  104  TYR104     -0.0200
    105  CD1      -14.9100   16.6690    5.3740 C.ar  104  TYR104     -0.0009
    106  CD2      -13.8480   18.6380    4.4330 C.ar  104  TYR104     -0.0009
    107  CE1      -15.9900   16.8350    4.5020 C.ar  104  TYR104      0.0417
    108  CE2      -14.9280   18.8050    3.5620 C.ar  104  TYR104      0.0417
    109  CZ       -15.9990   17.9030    3.5960 C.ar  104  TYR104      0.1957
    110  OH       -17.0480   18.0630    2.7470 O.3   104  TYR104     -0.2866
    111  N        -10.2150   15.2420    4.5910 N.am  105  GLY105     -0.1942
    112  CA        -9.1700   15.1580    3.5800 C.3   105  GLY105      0.2014
    113  C         -8.4280   13.8230    3.7720 C.2   105  GLY105      0.2638
    114  O         -8.9390   12.8950    4.4130 O.2   105  GLY105     -0.2714
    115  N         -7.2540   13.7730    3.1820 N.am  106  MET106     -0.1976
    116  CA        -6.3990   12.5920    3.1660 C.3   106  MET106      0.1605
    117  C         -5.6020   12.4260    4.4580 C.2   106  MET106      0.2287
    118  O         -4.8890   13.3770    4.8570 O.2   106  MET106     -0.2864
    119  CB        -5.3930   12.6700    2.0160 C.3   106  MET106      0.0413
    120  CG        -6.0440   12.7010    0.6590 C.3   106  MET106      0.0598
    121  SD        -5.9870   14.4550    0.0990 S.3   106  MET106     -0.1393
    122  CE        -7.5690   14.4800   -0.7660 C.3   106  MET106      0.0692
@<TRIPOS>BOND
     1    61    62    2
     2    61    60    1
     3    35    34    2
     4    70    69    1
     5    69    67   ar
     6    69    68   ar
     7    67    65   ar
     8    34    33    1
     9    60    59    1
    10    60    63    1
    11    68    66   ar
    12    65    64   ar
    13    66    64   ar
    14    59    53   am
    15    64    63    1
    16    32    33    1
    17    33    36    1
    18    51    52    1
    19    40    41    1
    20    43    42    2
    21    53    54    2
    22    53    52    1
    23    52    55    1
    24    36    37    1
    25    42    41    1
    26    37    38    1
    27    37    39    1
    28    41    44    1
    29    55    56    1
    30    55    57    1
    31    56    58    1
    32    48    47    2
    33   122   121    1
    34    47    46    1
    35    45    46    1
    36    77    76    1
    37   121   120    1
    38    46    49    1
    39    22    21    1
    40    22    23    2
    41    76    78    1
    42    76    75    1
    43   120   119    1
    44    27    29   ar
    45    27    25   ar
    46    21    24    1
    47    21    20    1
    48    24    25    1
    49    29    30   ar
    50    25    26   ar
    51    11    10    2
    52    30    31    1
    53    30    28   ar
    54    49    50    1
    55    26    28   ar
    56    20    10   am
    57   119   116    1
    58    75    72    1
    59    10     9    1
    60    71    72    1
    61   110   109    1
    62    72    73    1
    63   116   115    1
    64   116   117    1
    65   115   113   am
    66   108   109   ar
    67   108   106   ar
    68     9    12    1
    69     9     8    1
    70   112   113    1
    71   112   111    1
    72   109   107   ar
    73   113   114    2
    74    12    13    1
    75     8     3   am
    76     1     2    1
    77   102   101    2
    78    73    74    2
    79    73    79   am
    80   106   104   ar
    81   117   118    2
    82   107   105   ar
    83   111   101   am
    84     3     2    1
    85     3     4    2
    86   101   100    1
    87     2     5    1
    88   104   105   ar
    89   104   103    1
    90    13    14   ar
    91    13    15   ar
    92    79    80    1
    93    14    16   ar
    94   100   103    1
    95   100    99    1
    96    15    17   ar
    97     5     6    1
    98     5     7    1
    99    82    81    2
   100    80    81    1
   101    80    83    1
   102    81    87   am
   103    16    18   ar
   104    17    18   ar
   105    87    88    1
   106    93    95   ar
   107    93    92   ar
   108    83    84    1
   109    88    91    1
   110    88    89    1
   111    95    97   ar
   112    18    19    1
   113    91    92    1
   114    90    89    2
   115    92    94   ar
   116    97    98    1
   117    97    96   ar
   118    84    86   am
   119    84    85    2
   120    94    96   ar
