@<TRIPOS>MOLECULE
tmp/2bfyA00.pdb
 191 183 0 0 0
SMALL
GASTEIGER

@<TRIPOS>ATOM
      1  N         11.8500    2.1210   -2.2750 N.3    14  LEU14      -0.1231
      2  CA        11.9580    1.1440   -1.1950 C.3    14  LEU14       0.1693
      3  C         10.7230    0.2440   -1.2170 C.2    14  LEU14       0.2593
      4  O         10.7280   -0.8530   -0.6560 O.2    14  LEU14      -0.2718
      5  CB        12.0680    1.8590    0.1520 C.3    14  LEU14       0.0284
      6  CG        13.4070    2.5410    0.4070 C.3    14  LEU14       0.0019
      7  CD1       13.3390    3.3470    1.7000 C.3    14  LEU14       0.0001
      8  CD2       14.5140    1.4770    0.4710 C.3    14  LEU14       0.0001
      9  N          9.6620    0.7080   -1.8720 N.am   15  GLY15      -0.1942
     10  CA         8.4500   -0.0920   -1.9530 C.3    15  GLY15       0.2014
     11  C          7.1830    0.7240   -1.8020 C.2    15  GLY15       0.2639
     12  O          7.2330    1.9500   -1.6770 O.2    15  GLY15      -0.2714
     13  N          6.0390    0.0510   -1.8190 N.am   16  LYS16      -0.1963
     14  CA         4.7650    0.7270   -1.6590 C.3    16  LYS16       0.1728
     15  C          4.4660    0.8860   -0.1770 C.2    16  LYS16       0.2617
     16  O          4.7090   -0.0220    0.6190 O.2    16  LYS16      -0.2715
     17  CB         3.6320   -0.0580   -2.3280 C.3    16  LYS16       0.0311
     18  CG         3.7120   -0.1160   -3.8500 C.3    16  LYS16       0.0038
     19  CD         2.3800   -0.5580   -4.4730 C.3    16  LYS16       0.0206
     20  CE         2.4440   -0.5100   -6.0030 C.3    16  LYS16       0.1093
     21  NZ         1.1070   -0.6880   -6.6480 N.3    16  LYS16      -0.1314
     22  N          3.9540    2.0580    0.1790 N.am   17  GLY17      -0.1940
     23  CA         3.6090    2.3520    1.5530 C.3    17  GLY17       0.2014
     24  C          2.1250    2.6390    1.6240 C.2    17  GLY17       0.2638
     25  O          1.3880    2.3120    0.6960 O.2    17  GLY17      -0.2714
     26  N          1.6790    3.2630    2.7070 N.am   18  LYS18      -0.1977
     27  CA         0.2640    3.5780    2.8620 C.3    18  LYS18       0.1596
     28  C         -0.1210    4.8330    2.0840 C.2    18  LYS18       0.2287
     29  O          0.2340    5.9520    2.4670 O.2    18  LYS18      -0.2864
     30  CB        -0.0760    3.7590    4.3430 C.3    18  LYS18       0.0298
     31  CG        -1.0670    2.7390    4.8790 C.3    18  LYS18       0.0038
     32  CD        -2.4240    2.8800    4.2170 C.3    18  LYS18       0.0206
     33  CE        -3.4220    1.8840    4.7900 C.3    18  LYS18       0.1093
     34  NZ        -4.7800    2.0180    4.1750 N.3    18  LYS18      -0.1314
     35  N          7.4070    4.8520   -1.2740 N.3    22  VAL22      -0.1245
     36  CA         8.4920    5.2840   -0.4160 C.3    22  VAL22       0.1561
     37  C          9.7900    5.0930   -1.1860 C.2    22  VAL22       0.2260
     38  O          9.9800    4.0870   -1.8600 O.2    22  VAL22      -0.2867
     39  CB         8.5080    4.4590    0.8900 C.3    22  VAL22       0.0252
     40  CG1        9.6070    4.9520    1.8190 C.3    22  VAL22       0.0019
     41  CG2        7.1480    4.5800    1.5670 C.3    22  VAL22       0.0019
     42  N         14.0980    8.1950    4.2700 N.3    35  ALA35      -0.1245
     43  CA        13.0860    7.6480    3.3890 C.3    35  ALA35       0.1562
     44  C         12.1600    8.8300    3.0720 C.2    35  ALA35       0.2260
     45  O         11.9870    9.7300    3.8940 O.2    35  ALA35      -0.2867
     46  CB        12.3200    6.5390    4.0800 C.3    35  ALA35       0.0290
     47  N          8.3150    9.5080    1.7340 N.3    37  LYS37      -0.1245
     48  CA         7.0230    8.9500    1.3720 C.3    37  LYS37       0.1561
     49  C          6.3510   10.0500    0.5380 C.2    37  LYS37       0.2260
     50  O          6.2380   11.1960    0.9790 O.2    37  LYS37      -0.2867
     51  CB         6.1920    8.6400    2.6230 C.3    37  LYS37       0.0271
     52  CG         4.8720    7.9130    2.3160 C.3    37  LYS37       0.0035
     53  CD         3.9790    7.7540    3.5500 C.3    37  LYS37       0.0206
     54  CE         4.6720    6.9680    4.6600 C.3    37  LYS37       0.1093
     55  NZ         3.8080    6.7280    5.8750 N.3    37  LYS37      -0.1314
     56  N          9.6150    5.3020   14.5110 N.3    69  LEU69      -0.1245
     57  CA        10.1850    5.8470   13.2760 C.3    69  LEU69       0.1561
     58  C         10.0030    7.3800   13.3060 C.2    69  LEU69       0.2260
     59  O          8.8930    7.9100   13.4830 O.2    69  LEU69      -0.2867
     60  CB         9.4870    5.1980   12.0750 C.3    69  LEU69       0.0270
     61  CG        10.3030    5.0950   10.7840 C.3    69  LEU69       0.0019
     62  CD1       11.3740    4.0310   10.9160 C.3    69  LEU69       0.0001
     63  CD2        9.3890    4.7380    9.6370 C.3    69  LEU69       0.0001
     64  N         11.0830   10.8670    6.3810 N.3    85  LEU85      -0.1231
     65  CA        11.0700    9.8660    7.4600 C.3    85  LEU85       0.1693
     66  C         12.3770    9.1250    7.6700 C.2    85  LEU85       0.2592
     67  O         13.1950    8.9770    6.7650 O.2    85  LEU85      -0.2718
     68  CB         9.9980    8.8220    7.1300 C.3    85  LEU85       0.0284
     69  CG         8.5580    9.3530    7.0270 C.3    85  LEU85       0.0019
     70  CD1        7.6800    8.4790    6.1460 C.3    85  LEU85       0.0001
     71  CD2        7.9790    9.4490    8.4430 C.3    85  LEU85       0.0001
     72  N         12.5390    8.6100    8.8740 N.am   86  GLU86      -0.1966
     73  CA        13.7060    7.8060    9.1910 C.3    86  GLU86       0.1733
     74  C         13.7900    6.5520    8.3080 C.2    86  GLU86       0.2616
     75  O         12.7970    5.8570    8.0460 O.2    86  GLU86      -0.2715
     76  CB        13.6440    7.4040   10.6800 C.3    86  GLU86       0.0429
     77  CG        14.8020    6.5250   11.1450 C.3    86  GLU86       0.1163
     78  CD        14.6680    6.1810   12.6270 C.2    86  GLU86       0.3649
     79  OE1       15.5120    5.4070   13.1410 O.co2  86  GLU86      -0.2457
     80  OE2       13.7110    6.6900   13.2630 O.co2  86  GLU86      -0.2457
     81  N         14.9950    6.2640    7.8270 N.am   87  PHE87      -0.1960
     82  CA        15.2290    5.0830    7.0070 C.3    87  PHE87       0.1771
     83  C         15.5340    3.9390    7.9840 C.2    87  PHE87       0.2619
     84  O         16.3940    4.0950    8.8610 O.2    87  PHE87      -0.2715
     85  CB        16.4330    5.3400    6.0730 C.3    87  PHE87       0.0574
     86  CG        16.8970    4.1160    5.3210 C.ar   87  PHE87      -0.0200
     87  CD1       16.0040    3.3150    4.6270 C.ar   87  PHE87      -0.0042
     88  CD2       18.2580    3.7860    5.2790 C.ar   87  PHE87      -0.0042
     89  CE1       16.4370    2.2110    3.9020 C.ar   87  PHE87      -0.0003
     90  CE2       18.6930    2.6830    4.5540 C.ar   87  PHE87      -0.0003
     91  CZ        17.7830    1.9000    3.8660 C.ar   87  PHE87      -0.0000
     92  N         14.8220    2.8180    7.8410 N.am   88  ALA88      -0.1964
     93  CA        14.9870    1.6180    8.7160 C.3    88  ALA88       0.1713
     94  C         15.6380    0.6070    7.7980 C.2    88  ALA88       0.2458
     95  O         14.9710   -0.1420    7.0950 O.2    88  ALA88      -0.2730
     96  CB        13.6140    1.1020    9.1700 C.3    88  ALA88       0.0333
     97  N         16.9700    0.5640    7.8130 N.am   89  PRO89      -0.2716
     98  CA        17.7490   -0.3250    6.9630 C.3    89  PRO89       0.1536
     99  C         17.3600   -1.7680    6.8470 C.2    89  PRO89       0.2598
    100  O         17.4950   -2.3570    5.7570 O.2    89  PRO89      -0.2715
    101  CB        19.1760   -0.1460    7.4860 C.3    89  PRO89       0.0310
    102  CG        19.1580    1.2000    8.1220 C.3    89  PRO89       0.0237
    103  CD        17.8180    1.1760    8.8410 C.3    89  PRO89       0.0939
    104  N         16.8790   -2.3740    7.9300 N.am   90  ARG90      -0.1964
    105  CA        16.5320   -3.7730    7.8220 C.3    90  ARG90       0.1729
    106  C         15.1090   -4.0630    7.3810 C.2    90  ARG90       0.2617
    107  O         14.6930   -5.2060    7.3290 O.2    90  ARG90      -0.2715
    108  CB        16.8860   -4.5240    9.1100 C.3    90  ARG90       0.0348
    109  CG        18.3920   -4.6040    9.3270 C.3    90  ARG90       0.0492
    110  CD        18.7080   -5.6370   10.3920 C.3    90  ARG90       0.2205
    111  NE        20.0820   -5.5370   10.8660 N.pl3  90  ARG90      -0.0865
    112  CZ        20.5970   -6.3220   11.8100 C.cat  90  ARG90       0.5346
    113  NH1       19.8470   -7.2680   12.3760 N.pl3  90  ARG90       0.1354
    114  NH2       21.8570   -6.1540   12.1990 N.pl3  90  ARG90       0.1354
    115  N         14.3660   -3.0140    7.0400 N.am   91  GLY91      -0.1940
    116  CA        13.0390   -3.2320    6.5030 C.3    91  GLY91       0.2014
    117  C         11.9140   -3.7400    7.3740 C.2    91  GLY91       0.2638
    118  O         11.8780   -3.5270    8.5880 O.2    91  GLY91      -0.2714
    119  N         10.9990   -4.4410    6.7160 N.am   92  GLU92      -0.1977
    120  CA         9.7940   -4.9580    7.3410 C.3    92  GLU92       0.1602
    121  C         10.0130   -6.0810    8.3240 C.2    92  GLU92       0.2287
    122  O         10.6230   -7.1010    8.0030 O.2    92  GLU92      -0.2864
    123  CB         8.8270   -5.4500    6.2670 C.3    92  GLU92       0.0415
    124  CG         8.6090   -4.4660    5.1450 C.3    92  GLU92       0.1163
    125  CD         7.3860   -3.6190    5.3380 C.2    92  GLU92       0.3649
    126  OE1        6.2610   -4.1460    5.1810 O.co2  92  GLU92      -0.2457
    127  OE2        7.5460   -2.4220    5.6530 O.co2  92  GLU92      -0.2457
    128  N          8.2510   -9.3570    7.2450 N.3    95  LYS95      -0.1231
    129  CA         8.9570  -10.1930    6.2700 C.3    95  LYS95       0.1693
    130  C          9.9360  -11.1140    6.9420 C.2    95  LYS95       0.2591
    131  O         10.0870  -12.2690    6.5300 O.2    95  LYS95      -0.2718
    132  CB         9.6990   -9.3460    5.2350 C.3    95  LYS95       0.0285
    133  CG         8.7720   -8.8180    4.1510 C.3    95  LYS95       0.0035
    134  CD         9.5490   -8.2340    2.9790 C.3    95  LYS95       0.0206
    135  CE         8.5840   -7.6690    1.9370 C.3    95  LYS95       0.1093
    136  NZ         9.3100   -7.1530    0.7420 N.3    95  LYS95      -0.1314
    137  N         10.5940  -10.6050    7.9840 N.am   96  GLU96      -0.1979
    138  CA        11.5610  -11.3720    8.7560 C.3    96  GLU96       0.1602
    139  C         10.8280  -12.4720    9.5210 C.2    96  GLU96       0.2287
    140  O         11.2910  -13.6130    9.5980 O.2    96  GLU96      -0.2864
    141  CB        12.3060  -10.4250    9.7160 C.3    96  GLU96       0.0415
    142  CG        13.3580  -11.0750   10.5840 C.3    96  GLU96       0.1163
    143  CD        14.6440  -11.3610    9.8300 C.2    96  GLU96       0.3649
    144  OE1       15.6050  -11.8450   10.4710 O.co2  96  GLU96      -0.2457
    145  OE2       14.6940  -11.1100    8.6010 O.co2  96  GLU96      -0.2457
    146  N          3.1350   -6.0630   10.7790 N.3   135  GLU135     -0.1231
    147  CA         3.1930   -5.2350    9.5750 C.3   135  GLU135      0.1699
    148  C          3.3930   -3.7390    9.7860 C.2   135  GLU135      0.2592
    149  O          3.7560   -3.0250    8.8540 O.2   135  GLU135     -0.2718
    150  CB         1.9340   -5.4620    8.7140 C.3   135  GLU135      0.0402
    151  CG         1.7570   -6.8960    8.2510 C.3   135  GLU135      0.1161
    152  CD         0.8370   -7.6950    9.1690 C.2   135  GLU135      0.3649
    153  OE1        1.1250   -7.7940   10.3870 O.co2 135  GLU135     -0.2457
    154  OE2       -0.1920   -8.2130    8.6660 O.co2 135  GLU135     -0.2457
    155  N          3.1530   -3.2460   10.9950 N.am  136  ASN136     -0.1974
    156  CA         3.3360   -1.8260   11.2600 C.3   136  ASN136      0.1688
    157  C          4.7000   -1.4920   11.8950 C.2   136  ASN136      0.2292
    158  O          4.9340   -0.3720   12.3060 O.2   136  ASN136     -0.2864
    159  CB         2.2030   -1.3170   12.1530 C.3   136  ASN136      0.1181
    160  CG         0.9070   -1.1530   11.3690 C.2   136  ASN136      0.2629
    161  OD1        0.9690   -0.9670   10.1550 O.2   136  ASN136     -0.2716
    162  ND2       -0.2500   -1.2230   12.0380 N.am  136  ASN136     -0.0877
    163  N          9.0110   -1.6810   11.6260 N.3   138  LEU138     -0.1231
    164  CA        10.1960   -1.7670   10.7690 C.3   138  LEU138      0.1693
    165  C         11.3900   -2.0600   11.7000 C.2   138  LEU138      0.2591
    166  O         11.2400   -2.0930   12.9120 O.2   138  LEU138     -0.2718
    167  CB        10.4150   -0.4510   10.0000 C.3   138  LEU138      0.0284
    168  CG         9.2960   -0.0910    9.0060 C.3   138  LEU138      0.0019
    169  CD1        9.6330    1.2250    8.2750 C.3   138  LEU138      0.0001
    170  CD2        9.1130   -1.1860    8.0080 C.3   138  LEU138      0.0001
    171  N         12.5690   -2.2890   11.1240 N.am  139  MET139     -0.1979
    172  CA        13.7500   -2.6260   11.9290 C.3   139  MET139      0.1605
    173  C         14.9260   -1.7640   11.5340 C.2   139  MET139      0.2287
    174  O         15.1890   -1.6100   10.3360 O.2   139  MET139     -0.2864
    175  CB        14.1280   -4.0860   11.7030 C.3   139  MET139      0.0413
    176  CG        13.0350   -5.0700   12.1630 C.3   139  MET139      0.0598
    177  SD        13.4650   -6.7610   11.8660 S.3   139  MET139     -0.1393
    178  CE        13.4000   -6.8700   10.0210 C.3   139  MET139      0.0692
    179  N          6.2110    2.1290   12.8900 N.3   148  ALA148     -0.1231
    180  CA         6.2510    2.9630   11.6720 C.3   148  ALA148      0.1694
    181  C          4.9740    3.4530   11.0630 C.2   148  ALA148      0.2592
    182  O          5.0170    4.1560   10.0450 O.2   148  ALA148     -0.2718
    183  CB         7.0100    2.2280   10.6030 C.3   148  ALA148      0.0304
    184  N          3.8380    3.0810   11.6300 N.am  149  ASP149     -0.1974
    185  CA         2.5650    3.5190   11.0670 C.3   149  ASP149      0.1709
    186  C          1.7100    3.9590   12.2510 C.2   149  ASP149      0.2293
    187  O          1.7350    3.3250   13.2970 O.2   149  ASP149     -0.2864
    188  CB         1.8840    2.3570   10.3540 C.3   149  ASP149      0.1436
    189  CG         0.6170    2.8010    9.6350 C.2   149  ASP149      0.3671
    190  OD1        0.7180    3.1720    8.4470 O.co2 149  ASP149     -0.2456
    191  OD2       -0.4630    2.8110   10.2630 O.co2 149  ASP149     -0.2456
@<TRIPOS>BOND
     1    21    20    1
     2    20    19    1
     3    19    18    1
     4    18    17    1
     5    17    14    1
     6     1     2    1
     7    10     9    1
     8    10    11    1
     9     9     3   am
    10    38    37    2
    11    13    11   am
    12    13    14    1
    13    11    12    2
    14    14    15    1
    15    35    36    1
    16     3     2    1
    17     3     4    2
    18     2     5    1
    19    37    36    1
    20    36    39    1
    21    15    22   am
    22    15    16    2
    23     5     6    1
    24    22    23    1
    25     6     8    1
    26     6     7    1
    27    49    50    2
    28    49    48    1
    29    25    24    2
    30   136   135    1
    31    39    41    1
    32    39    40    1
    33    48    47    1
    34    48    51    1
    35    23    24    1
    36    24    26   am
    37   135   134    1
    38    28    29    2
    39    28    27    1
    40    52    51    1
    41    52    53    1
    42    26    27    1
    43    27    30    1
    44   134   133    1
    45    44    43    1
    46    44    45    2
    47    43    46    1
    48    43    42    1
    49    53    54    1
    50    91    89   ar
    51    91    90   ar
    52    89    87   ar
    53   133   132    1
    54    34    33    1
    55    32    33    1
    56    32    31    1
    57    30    31    1
    58    90    88   ar
    59    87    86   ar
    60    54    55    1
    61   124   125    1
    62   124   123    1
    63   126   125   ar
    64   132   129    1
    65    88    86   ar
    66    86    85    1
    67   125   127   ar
    68   100    99    2
    69    85    82    1
    70    70    69    1
    71   123   120    1
    72   129   130    1
    73   129   128    1
    74    64    65    1
    75   116   115    1
    76   116   117    1
    77   131   130    2
    78   119   120    1
    79   119   117   am
    80    67    66    2
    81    99    98    1
    82    99   104   am
    83   130   137   am
    84    98   101    1
    85    98    97    1
    86    82    81    1
    87    82    83    1
    88    69    68    1
    89    69    71    1
    90   115   106   am
    91    95    94    2
    92    68    65    1
    93   107   106    2
    94   120   121    1
    95   117   118    2
    96   106   105    1
    97    65    66    1
    98   101   102    1
    99    66    72   am
   100    94    97   am
   101    94    93    1
   102    97   103    1
   103   105   104    1
   104   105   108    1
   105    81    74   am
   106    92    83   am
   107    92    93    1
   108   137   138    1
   109    83    84    2
   110   122   121    2
   111   170   168    1
   112    75    74    2
   113   102   103    1
   114   151   150    1
   115   151   152    1
   116   169   168    1
   117    74    73    1
   118   190   189   ar
   119   145   143   ar
   120   154   152   ar
   121   150   147    1
   122    93    96    1
   123   138   139    1
   124   138   141    1
   125   149   148    2
   126    72    73    1
   127   168   167    1
   128   108   109    1
   129   152   153   ar
   130    73    76    1
   131   109   110    1
   132   139   140    2
   133   147   148    1
   134   147   146    1
   135   189   191   ar
   136   189   188    1
   137    63    61    1
   138   141   142    1
   139   148   155   am
   140   143   144   ar
   141   143   142    1
   142   167   164    1
   143   178   177    1
   144   182   181    2
   145   161   160    2
   146   174   173    2
   147   188   185    1
   148   110   111    1
   149   183   180    1
   150    76    77    1
   151   164   163    1
   152   164   165    1
   153    61    62    1
   154    61    60    1
   155   111   112    2
   156   155   156    1
   157   181   184   am
   158   181   180    1
   159   185   184    1
   160   185   186    1
   161   171   165   am
   162   171   172    1
   163    77    78    1
   164   156   157    1
   165   156   159    1
   166   160   162   am
   167   160   159    1
   168   173   172    1
   169   180   179    1
   170   165   166    2
   171   175   172    1
   172   175   176    1
   173   112   114    1
   174   112   113    1
   175   177   176    1
   176   157   158    2
   177    60    57    1
   178   186   187    2
   179    78    79   ar
   180    78    80   ar
   181    57    58    1
   182    57    56    1
   183    58    59    2
