@<TRIPOS>MOLECULE
tmp/2bgcA00.pdb
 135 136 0 0 0
SMALL
GASTEIGER

@<TRIPOS>ATOM
      1  N         13.2450   21.4590   28.4870 N.3    59  GLN59      -0.1231
      2  CA        12.7050   20.4180   27.6350 C.3    59  GLN59       0.1698
      3  C         11.4150   19.7950   28.1430 C.2    59  GLN59       0.2592
      4  O         11.2880   19.5770   29.3230 O.2    59  GLN59      -0.2718
      5  CB        13.7210   19.2740   27.5440 C.3    59  GLN59       0.0381
      6  CG        13.8880   18.8660   26.1480 C.3    59  GLN59       0.0905
      7  CD        14.2590   17.4520   26.0040 C.2    59  GLN59       0.2608
      8  OE1       15.4270   17.0950   26.1200 O.2    59  GLN59      -0.2717
      9  NE2       13.2710   16.6200   25.7090 N.am   59  GLN59      -0.0878
     10  N         10.5170   19.4430   27.2220 N.am   60  TYR60      -0.1962
     11  CA         9.4090   18.4880   27.4800 C.3    60  TYR60       0.1771
     12  C          9.8200   17.0080   27.4010 C.2    60  TYR60       0.2620
     13  O         10.5640   16.6210   26.5110 O.2    60  TYR60      -0.2715
     14  CB         8.2780   18.7300   26.4840 C.3    60  TYR60       0.0574
     15  CG         7.6000   20.0670   26.6850 C.ar   60  TYR60      -0.0198
     16  CD1        6.4910   20.2010   27.5280 C.ar   60  TYR60      -0.0009
     17  CD2        8.0710   21.1950   26.0330 C.ar   60  TYR60      -0.0009
     18  CE1        5.8670   21.4520   27.7040 C.ar   60  TYR60       0.0417
     19  CE2        7.4780   22.4310   26.1960 C.ar   60  TYR60       0.0417
     20  CZ         6.3720   22.5730   27.0370 C.ar   60  TYR60       0.1957
     21  OH         5.8000   23.8350   27.1870 O.3    60  TYR60      -0.2866
     22  N          9.3300   16.1840   28.3290 N.am   61  TYR61      -0.1960
     23  CA         9.4680   14.7100   28.2410 C.3    61  TYR61       0.1771
     24  C          8.1150   13.9870   28.3790 C.2    61  TYR61       0.2619
     25  O          7.3860   14.1860   29.3560 O.2    61  TYR61      -0.2715
     26  CB        10.3890   14.1310   29.3240 C.3    61  TYR61       0.0574
     27  CG        11.8200   14.5100   29.2730 C.ar   61  TYR61      -0.0198
     28  CD1       12.7090   13.8160   28.4610 C.ar   61  TYR61      -0.0009
     29  CD2       12.3110   15.5450   30.0850 C.ar   61  TYR61      -0.0009
     30  CE1       14.0630   14.1420   28.4430 C.ar   61  TYR61       0.0417
     31  CE2       13.6270   15.8890   30.0800 C.ar   61  TYR61       0.0417
     32  CZ        14.5170   15.1840   29.2420 C.ar   61  TYR61       0.1957
     33  OH        15.8500   15.5030   29.2390 O.3    61  TYR61      -0.2866
     34  N          7.8460   13.1050   27.4260 N.am   62  LYS62      -0.1977
     35  CA         6.5860   12.4020   27.2990 C.3    62  LYS62       0.1596
     36  C          6.8380   10.9160   27.2790 C.2    62  LYS62       0.2287
     37  O          7.9610   10.4550   27.0370 O.2    62  LYS62      -0.2864
     38  CB         5.9370   12.7840   25.9510 C.3    62  LYS62       0.0298
     39  CG         4.4350   12.3900   25.7600 C.3    62  LYS62       0.0038
     40  CD         4.2350   11.2280   24.8220 C.3    62  LYS62       0.0206
     41  CE         3.0700   11.4640   23.8600 C.3    62  LYS62       0.1093
     42  NZ         3.0640   10.3860   22.8040 N.3    62  LYS62      -0.1314
     43  N         10.3930    7.2620   28.6350 N.3    65  PHE65      -0.1241
     44  CA        11.7650    7.7580   28.4360 C.3    65  PHE65       0.1605
     45  C         12.4980    7.6990   29.7690 C.2    65  PHE65       0.2264
     46  O         11.8940    7.3620   30.7900 O.2    65  PHE65      -0.2867
     47  CB        11.7900    9.2090   27.8790 C.3    65  PHE65       0.0534
     48  CG        12.9980    9.5050   26.9930 C.ar   65  PHE65      -0.0203
     49  CD1       13.0970    8.9350   25.7110 C.ar   65  PHE65      -0.0042
     50  CD2       14.0540   10.3230   27.4470 C.ar   65  PHE65      -0.0042
     51  CE1       14.2100    9.1760   24.8960 C.ar   65  PHE65      -0.0003
     52  CE2       15.1490   10.5820   26.6460 C.ar   65  PHE65      -0.0003
     53  CZ        15.2410   10.0080   25.3590 C.ar   65  PHE65      -0.0000
     54  N         19.5800    9.3850   21.8250 N.3   120  LYS120     -0.1231
     55  CA        18.4930   10.1630   21.2940 C.3   120  LYS120      0.1693
     56  C         18.5360   11.5350   21.8660 C.2   120  LYS120      0.2591
     57  O         18.4740   12.5240   21.1230 O.2   120  LYS120     -0.2718
     58  CB        17.1170    9.5040   21.5790 C.3   120  LYS120      0.0285
     59  CG        16.8630    8.4050   20.5280 C.3   120  LYS120      0.0035
     60  CD        15.5980    7.6040   20.8140 C.3   120  LYS120      0.0206
     61  CE        15.4230    6.3890   19.8230 C.3   120  LYS120      0.1093
     62  NZ        14.1500    5.5930   20.1790 N.3   120  LYS120     -0.1314
     63  N         18.6120   11.5810   23.1920 N.am  121  GLN121     -0.1979
     64  CA        18.8300   12.8060   23.9600 C.3   121  GLN121      0.1601
     65  C         20.0520   13.6070   23.4630 C.2   121  GLN121      0.2287
     66  O         19.9620   14.8050   23.1530 O.2   121  GLN121     -0.2864
     67  CB        19.0180   12.4140   25.4300 C.3   121  GLN121      0.0394
     68  CG        19.2830   13.5450   26.3580 C.3   121  GLN121      0.0908
     69  CD        18.0460   14.4040   26.6280 C.2   121  GLN121      0.2608
     70  OE1       17.8840   15.5100   26.0400 O.2   121  GLN121     -0.2717
     71  NE2       17.1820   13.9170   27.5130 N.am  121  GLN121     -0.0878
     72  N         19.1670   15.0140   20.0350 N.3   124  TYR124     -0.1241
     73  CA        18.0500   15.9500   20.1280 C.3   124  TYR124      0.1605
     74  C         18.4690   17.2960   20.5890 C.2   124  TYR124      0.2264
     75  O         17.9700   18.2950   20.0600 O.2   124  TYR124     -0.2867
     76  CB        17.0170   15.4240   21.1040 C.3   124  TYR124      0.0534
     77  CG        15.8070   16.3030   21.2790 C.ar  124  TYR124     -0.0201
     78  CD1       14.8070   16.3410   20.3110 C.ar  124  TYR124     -0.0009
     79  CD2       15.6570   17.0970   22.3900 C.ar  124  TYR124     -0.0009
     80  CE1       13.7290   17.1070   20.4290 C.ar  124  TYR124      0.0417
     81  CE2       14.5170   17.8840   22.5340 C.ar  124  TYR124      0.0417
     82  CZ        13.5630   17.8850   21.5320 C.ar  124  TYR124      0.1957
     83  OH        12.4200   18.6840   21.6210 O.3   124  TYR124     -0.2866
     84  N          8.2850   21.1210   17.4910 N.3   147  ILE147     -0.1245
     85  CA         8.4590   20.0470   18.4500 C.3   147  ILE147      0.1561
     86  C          7.1060   19.6230   18.9980 C.2   147  ILE147      0.2260
     87  O          6.8420   18.4470   19.1230 O.2   147  ILE147     -0.2867
     88  CB         9.4260   20.4620   19.6240 C.3   147  ILE147      0.0252
     89  CG1       10.8900   20.4990   19.1560 C.3   147  ILE147      0.0019
     90  CG2        9.3190   19.4780   20.8010 C.3   147  ILE147      0.0019
     91  CD1       11.7470   21.4180   20.0110 C.3   147  ILE147      0.0001
     92  N          5.1950   16.0430   18.5240 N.3   151  VAL151     -0.1231
     93  CA         4.9740   15.2170   19.7240 C.3   151  VAL151      0.1692
     94  C          3.4860   15.1840   20.2210 C.2   151  VAL151      0.2592
     95  O          2.9810   14.1170   20.5600 O.2   151  VAL151     -0.2718
     96  CB         5.9500   15.6050   20.8500 C.3   151  VAL151      0.0266
     97  CG1        5.6640   14.8270   22.1350 C.3   151  VAL151      0.0020
     98  CG2        7.3790   15.3500   20.4080 C.3   151  VAL151      0.0020
     99  N          2.8040   16.3350   20.2420 N.am  152  TYR152     -0.1976
    100  CA         1.4560   16.4750   20.8980 C.3   152  TYR152      0.1639
    101  C          0.3060   16.7770   19.9390 C.2   152  TYR152      0.2290
    102  O         -0.8660   16.7860   20.3340 O.2   152  TYR152     -0.2864
    103  CB         1.5150   17.5450   22.0180 C.3   152  TYR152      0.0560
    104  CG         2.5530   17.1670   23.0510 C.ar  152  TYR152     -0.0198
    105  CD1        2.3080   16.1310   23.9560 C.ar  152  TYR152     -0.0009
    106  CD2        3.8100   17.7650   23.0670 C.ar  152  TYR152     -0.0009
    107  CE1        3.2690   15.7340   24.8800 C.ar  152  TYR152      0.0417
    108  CE2        4.7970   17.3650   24.0000 C.ar  152  TYR152      0.0417
    109  CZ         4.5160   16.3500   24.9010 C.ar  152  TYR152      0.1957
    110  OH         5.4650   15.9570   25.8350 O.3   152  TYR152     -0.2866
    111  N         15.7690   15.5270   12.4790 N.3   222  TRP222     -0.1227
    112  CA        15.8430   14.6660   13.6800 C.3   222  TRP222      0.1737
    113  C         14.5800   13.8230   13.9100 C.2   222  TRP222      0.2595
    114  O         14.6840   12.6220   14.2250 O.2   222  TRP222     -0.2718
    115  CB        16.1160   15.4940   14.9560 C.3   222  TRP222      0.0564
    116  CG        16.3460   14.6040   16.1340 C.ar  222  TRP222      0.0003
    117  CD1       17.5380   14.0250   16.5090 C.ar  222  TRP222      0.0946
    118  CD2       15.3650   14.1310   17.0510 C.ar  222  TRP222      0.0152
    119  NE1       17.3590   13.2450   17.6210 N.ar  222  TRP222     -0.2442
    120  CE2       16.0360   13.2830   17.9800 C.ar  222  TRP222      0.0810
    121  CE3       13.9940   14.3300   17.1870 C.ar  222  TRP222      0.0012
    122  CZ2       15.3680   12.6400   19.0490 C.ar  222  TRP222      0.0191
    123  CZ3       13.3170   13.7010   18.2670 C.ar  222  TRP222      0.0001
    124  CH2       14.0140   12.8650   19.1820 C.ar  222  TRP222      0.0015
    125  N         13.3980   14.4220   13.8240 N.am  223  PHE223     -0.1976
    126  CA        12.1620   13.5880   13.8930 C.3   223  PHE223      0.1639
    127  C         12.1290   12.4580   12.8380 C.2   223  PHE223      0.2290
    128  O         11.7760   11.3130   13.1560 O.2   223  PHE223     -0.2864
    129  CB        10.8740   14.4480   13.8920 C.3   223  PHE223      0.0560
    130  CG        10.6190   15.0820   15.2290 C.ar  223  PHE223     -0.0200
    131  CD1       10.1690   14.3070   16.2780 C.ar  223  PHE223     -0.0042
    132  CD2       10.9590   16.4210   15.4610 C.ar  223  PHE223     -0.0042
    133  CE1        9.9950   14.8820   17.5430 C.ar  223  PHE223     -0.0003
    134  CE2       10.8060   17.0030   16.7150 C.ar  223  PHE223     -0.0003
    135  CZ        10.3160   16.2430   17.7570 C.ar  223  PHE223     -0.0000
@<TRIPOS>BOND
     1   111   112    1
     2   127   128    2
     3   127   126    1
     4   112   113    1
     5   112   115    1
     6   125   126    1
     7   125   113   am
     8   129   126    1
     9   129   130    1
    10   113   114    2
    11   115   116    1
    12   130   132   ar
    13   130   131   ar
    14   132   134   ar
    15   116   117   ar
    16   116   118   ar
    17   131   133   ar
    18   117   119   ar
    19   134   135   ar
    20   118   121   ar
    21   118   120   ar
    22   121   123   ar
    23    84    85    1
    24   133   135   ar
    25   119   120   ar
    26   120   122   ar
    27   123   124   ar
    28    85    86    1
    29    85    88    1
    30    92    93    1
    31    86    87    2
    32   122   124   ar
    33    89    88    1
    34    89    91    1
    35    88    90    1
    36    93    94    1
    37    93    96    1
    38    61    62    1
    39    61    60    1
    40   101   102    2
    41   101   100    1
    42    72    73    1
    43    75    74    2
    44    73    74    1
    45    73    76    1
    46    94    99   am
    47    94    95    2
    48    99   100    1
    49    78    80   ar
    50    78    77   ar
    51    98    96    1
    52    80    82   ar
    53    59    60    1
    54    59    58    1
    55    96    97    1
    56   100   103    1
    57    76    77    1
    58    57    56    2
    59    77    79   ar
    60    55    58    1
    61    55    54    1
    62    55    56    1
    63    82    83    1
    64    82    81   ar
    65    56    63   am
    66   103   104    1
    67    79    81   ar
    68    42    41    1
    69   104   106   ar
    70   104   105   ar
    71   106   108   ar
    72    66    65    2
    73    63    64    1
    74    65    64    1
    75    41    40    1
    76   105   107   ar
    77    64    67    1
    78   108   109   ar
    79    40    39    1
    80   107   109   ar
    81    51    53   ar
    82    51    49   ar
    83   109   110    1
    84    53    52   ar
    85    67    68    1
    86     9     7   am
    87    49    48   ar
    88    39    38    1
    89    38    35    1
    90     7     8    2
    91     7     6    1
    92    17    19   ar
    93    17    15   ar
    94    70    69    2
    95     6     5    1
    96    19    20   ar
    97    68    69    1
    98    14    15    1
    99    14    11    1
   100    13    12    2
   101    69    71   am
   102    52    50   ar
   103    15    16   ar
   104    48    50   ar
   105    48    47    1
   106    20    21    1
   107    20    18   ar
   108    37    36    2
   109    10    11    1
   110    10     3   am
   111    36    35    1
   112    35    34    1
   113    12    11    1
   114    12    22   am
   115    34    24   am
   116    16    18   ar
   117     5     2    1
   118     2     3    1
   119     2     1    1
   120    47    44    1
   121     3     4    2
   122    23    22    1
   123    23    24    1
   124    23    26    1
   125    24    25    2
   126    44    43    1
   127    44    45    1
   128    30    28   ar
   129    30    32   ar
   130    28    27   ar
   131    33    32    1
   132    32    31   ar
   133    27    26    1
   134    27    29   ar
   135    45    46    2
   136    31    29   ar
