@<TRIPOS>MOLECULE
tmp/2bgdA00.pdb
 122 115 0 0 0
SMALL
GASTEIGER

@<TRIPOS>ATOM
      1  N          5.7240   67.5760    2.0050 N.3    46  TYR46      -0.1241
      2  CA         4.6340   68.0960    1.1940 C.3    46  TYR46       0.1605
      3  C          4.5800   69.6250    1.3150 C.2    46  TYR46       0.2264
      4  O          4.5560   70.1970    2.4150 O.2    46  TYR46      -0.2867
      5  CB         3.3070   67.4700    1.6250 C.3    46  TYR46       0.0534
      6  CG         3.2960   65.9750    1.4830 C.ar   46  TYR46      -0.0201
      7  CD1        3.2320   65.3860    0.2280 C.ar   46  TYR46      -0.0009
      8  CD2        3.3400   65.1460    2.6060 C.ar   46  TYR46      -0.0009
      9  CE1        3.2340   64.0160    0.0860 C.ar   46  TYR46       0.0417
     10  CE2        3.3430   63.7670    2.4770 C.ar   46  TYR46       0.0417
     11  CZ         3.2950   63.2090    1.2140 C.ar   46  TYR46       0.1957
     12  OH         3.3070   61.8540    1.0640 O.3    46  TYR46      -0.2866
     13  N          2.2130   71.6730    0.8130 N.3    48  ASP48      -0.1225
     14  CA         0.9760   72.1780    1.4150 C.3    48  ASP48       0.1805
     15  C          0.6330   71.5810    2.7710 C.2    48  ASP48       0.2597
     16  O         -0.4910   71.7210    3.2230 O.2    48  ASP48      -0.2718
     17  CB        -0.1980   71.8890    0.4790 C.3    48  ASP48       0.1424
     18  CG        -0.0920   72.6310   -0.8410 C.2    48  ASP48       0.3668
     19  OD1        0.6600   73.6490   -0.9730 O.co2  48  ASP48      -0.2456
     20  OD2       -0.7520   72.2340   -1.8080 O.co2  48  ASP48      -0.2456
     21  N          1.5640   70.8730    3.4010 N.am   49  VAL49      -0.1980
     22  CA         1.3500   70.4010    4.7710 C.3    49  VAL49       0.1595
     23  C          2.4700   70.9480    5.6300 C.2    49  VAL49       0.2287
     24  O          3.6360   70.5280    5.5280 O.2    49  VAL49      -0.2864
     25  CB         1.2890   68.8720    4.8750 C.3    49  VAL49       0.0276
     26  CG1        1.0870   68.4440    6.3260 C.3    49  VAL49       0.0022
     27  CG2        0.1530   68.3200    3.9790 C.3    49  VAL49       0.0022
     28  N          4.3880   53.1350   -0.1710 N.3   112  GLU112     -0.1245
     29  CA         2.9350   53.1030   -0.4070 C.3   112  GLU112      0.1567
     30  C          2.6880   53.5090   -1.8460 C.2   112  GLU112      0.2260
     31  O          3.2110   54.5030   -2.3220 O.2   112  GLU112     -0.2867
     32  CB         2.1900   54.0620    0.5360 C.3   112  GLU112      0.0388
     33  CG         2.7140   54.0050    1.9620 C.3   112  GLU112      0.1160
     34  CD         1.8220   54.6740    3.0000 C.2   112  GLU112      0.3649
     35  OE1        1.5980   55.9230    2.9080 O.co2 112  GLU112     -0.2457
     36  OE2        1.3880   53.9430    3.9260 O.co2 112  GLU112     -0.2457
     37  N          7.0710   57.1650    0.9580 N.3   117  LYS117     -0.1197
     38  CA         6.2690   58.0690    1.8040 C.3   117  LYS117      0.1778
     39  C          6.8880   58.3300    3.1800 C.2   117  LYS117      0.2305
     40  O          6.3910   59.1760    3.9290 O.2   117  LYS117     -0.2863
     41  CB         4.8580   57.4740    1.9850 C.2   117  LYS117     -0.0042
     42  CG         3.8510   57.6660    0.7870 C.2   117  LYS117     -0.0273
     43  CD         4.4390   58.2730   -0.4760 C.3   117  LYS117      0.0462
     44  CE         3.6130   59.4300   -0.9990 C.3   117  LYS117      0.1140
     45  NZ         4.4120   60.5180   -1.7100 N.3   117  LYS117     -0.1310
     46  N         -2.8170   54.5670    2.9710 N.3   178  ASP178     -0.1225
     47  CA        -2.9750   56.0110    2.7930 C.3   178  ASP178      0.1805
     48  C         -4.3690   56.3520    2.2310 C.2   178  ASP178      0.2597
     49  O         -4.8820   55.6790    1.3060 O.2   178  ASP178     -0.2718
     50  CB        -1.8620   56.6040    1.9230 C.3   178  ASP178      0.1424
     51  CG        -1.8590   56.0530    0.5280 C.2   178  ASP178      0.3668
     52  OD1       -2.0470   56.8610   -0.4370 O.co2 178  ASP178     -0.2456
     53  OD2       -1.6870   54.8240    0.3110 O.co2 178  ASP178     -0.2456
     54  N         -4.9700   57.3810    2.8330 N.am  179  PHE179     -0.1976
     55  CA        -6.3230   57.8510    2.5340 C.3   179  PHE179      0.1639
     56  C         -7.3990   56.8120    2.8130 C.2   179  PHE179      0.2290
     57  O         -8.5220   56.9250    2.3370 O.2   179  PHE179     -0.2864
     58  CB        -6.4120   58.3900    1.0930 C.3   179  PHE179      0.0560
     59  CG        -5.5990   59.6240    0.8890 C.ar  179  PHE179     -0.0200
     60  CD1       -6.0940   60.8710    1.3060 C.ar  179  PHE179     -0.0042
     61  CD2       -4.3300   59.5510    0.3330 C.ar  179  PHE179     -0.0042
     62  CE1       -5.3280   62.0290    1.1560 C.ar  179  PHE179     -0.0003
     63  CE2       -3.5570   60.7030    0.1740 C.ar  179  PHE179     -0.0003
     64  CZ        -4.0530   61.9420    0.5850 C.ar  179  PHE179     -0.0000
     65  N          2.3890   59.5300   10.1850 N.3   212  CYS212     -0.1221
     66  CA         2.1320   58.6890    9.0430 C.3   212  CYS212      0.1808
     67  C          3.0480   59.2580    7.9580 C.2   212  CYS212      0.2602
     68  O          4.2490   59.4230    8.2170 O.2   212  CYS212     -0.2717
     69  CB         0.6360   58.6500    8.7020 C.3   212  CYS212      0.0970
     70  SG        -0.2220   60.2250    8.8840 S.3   212  CYS212     -0.0800
     71  N          2.5320   59.5630    6.7680 N.am  213  SER213     -0.1938
     72  CA         3.3780   60.1680    5.7440 C.3   213  SER213      0.2055
     73  C          3.3920   61.6970    5.8640 C.2   213  SER213      0.2642
     74  O          4.4590   62.2920    6.0120 O.2   213  SER213     -0.2714
     75  CB         2.9850   59.6990    4.3480 C.3   213  SER213      0.2130
     76  OG         3.8280   60.2570    3.3580 O.3   213  SER213     -0.2179
     77  N          2.2220   62.3380    5.8020 N.am  214  ALA214     -0.1977
     78  CA         2.1330   63.7920    6.0090 C.3   214  ALA214      0.1597
     79  C          1.9190   64.1570    7.4750 C.2   214  ALA214      0.2287
     80  O          2.1140   65.3010    7.8690 O.2   214  ALA214     -0.2864
     81  CB         1.0260   64.3640    5.1770 C.3   214  ALA214      0.0319
     82  N         -1.0490   63.8580    9.2010 N.3   216  ILE216     -0.1231
     83  CA        -2.3540   64.4780    9.3950 C.3   216  ILE216      0.1692
     84  C         -3.5540   63.5160    9.2610 C.2   216  ILE216      0.2593
     85  O         -4.4790   63.6120   10.0410 O.2   216  ILE216     -0.2718
     86  CB        -2.5330   65.7480    8.4620 C.3   216  ILE216      0.0266
     87  CG1       -2.5570   65.3790    6.9730 C.3   216  ILE216      0.0019
     88  CG2       -1.4330   66.7760    8.7320 C.3   216  ILE216      0.0020
     89  CD1       -2.5240   66.5790    6.0260 C.3   216  ILE216      0.0001
     90  N         -3.5660   62.6230    8.2720 N.am  217  GLY217     -0.1942
     91  CA        -4.7520   61.8130    7.9820 C.3   217  GLY217      0.2014
     92  C         -4.9570   60.6690    8.9670 C.2   217  GLY217      0.2638
     93  O         -5.9000   60.6790    9.8030 O.2   217  GLY217     -0.2714
     94  N         -4.0720   59.6750    8.8710 N.am  218  ARG218     -0.1977
     95  CA        -4.0630   58.5570    9.7980 C.3   218  ARG218      0.1597
     96  C         -3.6170   58.9860   11.2020 C.2   218  ARG218      0.2287
     97  O         -4.1720   58.5220   12.1990 O.2   218  ARG218     -0.2864
     98  CB        -3.1550   57.4480    9.2640 C.3   218  ARG218      0.0334
     99  CG        -3.7130   56.7650    7.9870 C.3   218  ARG218      0.0492
    100  CD        -2.7090   55.9170    7.2260 C.3   218  ARG218      0.2205
    101  NE        -1.7900   56.7690    6.4750 N.pl3 218  ARG218     -0.0865
    102  CZ        -0.8600   56.3360    5.6390 C.cat 218  ARG218      0.5346
    103  NH1       -0.6710   55.0330    5.4470 N.pl3 218  ARG218      0.1354
    104  NH2       -0.1050   57.2240    5.0020 N.pl3 218  ARG218      0.1354
    105  N         -8.1620   63.1130    6.8680 N.3   259  GLN259     -0.1245
    106  CA        -8.0930   63.4730    5.4540 C.3   259  GLN259      0.1566
    107  C         -9.2670   63.0440    4.5660 C.2   259  GLN259      0.2260
    108  O         -9.3740   63.5050    3.4350 O.2   259  GLN259     -0.2867
    109  CB        -6.7880   62.9190    4.8870 C.3   259  GLN259      0.0367
    110  CG        -5.6140   63.7940    5.2390 C.3   259  GLN259      0.0905
    111  CD        -5.6520   65.0650    4.4510 C.2   259  GLN259      0.2608
    112  OE1       -5.5590   65.0210    3.2100 O.2   259  GLN259     -0.2717
    113  NE2       -5.8670   66.1990    5.1350 N.am  259  GLN259     -0.0878
    114  N        -12.5960   58.3420    7.0070 N.3   263  GLN263     -0.1245
    115  CA       -11.7560   58.3350    8.2020 C.3   263  GLN263      0.1566
    116  C        -12.4910   58.9680    9.3750 C.2   263  GLN263      0.2260
    117  O        -12.3740   58.5120   10.5110 O.2   263  GLN263     -0.2867
    118  CB       -10.4360   59.0520    7.9510 C.3   263  GLN263      0.0367
    119  CG        -9.4380   58.2330    7.1720 C.3   263  GLN263      0.0905
    120  CD        -8.1710   58.9970    6.8830 C.2   263  GLN263      0.2608
    121  OE1       -8.0950   60.2050    7.1970 O.2   263  GLN263     -0.2717
    122  NE2       -7.1570   58.3100    6.2880 N.am  263  GLN263     -0.0878
@<TRIPOS>BOND
     1    31    30    2
     2    30    29    1
     3    20    18   ar
     4    45    44    1
     5    44    43    1
     6    19    18   ar
     7    18    17    1
     8    43    42    1
     9    52    51   ar
    10    29    28    1
    11    29    32    1
    12     9     7   ar
    13     9    11   ar
    14    63    61   ar
    15    63    64   ar
    16     7     6   ar
    17    53    51   ar
    18    61    59   ar
    19    17    14    1
    20    51    50    1
    21    32    33    1
    22    64    62   ar
    23    42    41    2
    24    13    14    1
    25    59    58    1
    26    59    60   ar
    27    37    38    1
    28    12    11    1
    29    58    55    1
    30    62    60   ar
    31     2     3    1
    32     2     5    1
    33     2     1    1
    34    11    10   ar
    35    49    48    2
    36     3     4    2
    37    14    15    1
    38     6     5    1
    39     6     8   ar
    40    38    41    1
    41    38    39    1
    42    50    47    1
    43    33    34    1
    44    48    47    1
    45    48    54   am
    46    57    56    2
    47    10     8   ar
    48    55    56    1
    49    55    54    1
    50    15    16    2
    51    15    21   am
    52    47    46    1
    53    35    34   ar
    54    34    36   ar
    55    39    40    2
    56   112   111    2
    57    76    75    1
    58    21    22    1
    59   108   107    2
    60    27    25    1
    61    75    72    1
    62   111   113   am
    63   111   110    1
    64   107   106    1
    65    22    25    1
    66    22    23    1
    67    25    26    1
    68   109   110    1
    69   109   106    1
    70   104   102    1
    71    81    78    1
    72   103   102    1
    73   106   105    1
    74    24    23    2
    75   102   101    2
    76    72    73    1
    77    72    71    1
    78    77    73   am
    79    77    78    1
    80    73    74    2
    81    78    79    1
    82    89    87    1
    83   122   120   am
    84   101   100    1
    85    71    67   am
    86   120   119    1
    87   120   121    2
    88    87    86    1
    89   114   115    1
    90   119   118    1
    91   100    99    1
    92    79    80    2
    93   118   115    1
    94    67    68    2
    95    67    66    1
    96    91    90    1
    97    91    92    1
    98    99    98    1
    99   115   116    1
   100    90    84   am
   101    86    88    1
   102    86    83    1
   103    69    70    1
   104    69    66    1
   105    94    92   am
   106    94    95    1
   107    92    93    2
   108    66    65    1
   109    82    83    1
   110    84    83    1
   111    84    85    2
   112    98    95    1
   113   116   117    2
   114    95    96    1
   115    96    97    2
