@<TRIPOS>MOLECULE
tmp/2bgeA00.pdb
 113 107 0 0 0
SMALL
GASTEIGER

@<TRIPOS>ATOM
      1  N         61.4010   28.9790   36.6380 N.3    46  TYR46      -0.1241
      2  CA        61.2040   30.1430   35.7820 C.3    46  TYR46       0.1605
      3  C         62.4400   31.0490   35.8430 C.2    46  TYR46       0.2264
      4  O         62.8780   31.4490   36.9230 O.2    46  TYR46      -0.2867
      5  CB        59.9650   30.9260   36.2290 C.3    46  TYR46       0.0534
      6  CG        58.6790   30.1300   36.1270 C.ar   46  TYR46      -0.0201
      7  CD1       58.1320   29.8050   34.8850 C.ar   46  TYR46      -0.0009
      8  CD2       58.0250   29.6720   37.2740 C.ar   46  TYR46      -0.0009
      9  CE1       56.9600   29.0380   34.7880 C.ar   46  TYR46       0.0417
     10  CE2       56.8570   28.9040   37.1850 C.ar   46  TYR46       0.0417
     11  CZ        56.3310   28.5910   35.9420 C.ar   46  TYR46       0.1957
     12  OH        55.1820   27.8250   35.8510 O.3    46  TYR46      -0.2866
     13  N         62.7460   34.0760   35.1980 N.3    48  ASP48      -0.1225
     14  CA        62.4290   35.4030   35.7090 C.3    48  ASP48       0.1805
     15  C         61.9430   35.4450   37.1560 C.2    48  ASP48       0.2597
     16  O         61.5420   36.4990   37.6390 O.2    48  ASP48      -0.2718
     17  CB        61.3780   36.0580   34.8130 C.3    48  ASP48       0.1424
     18  CG        60.0860   35.2480   34.7360 C.2    48  ASP48       0.3668
     19  OD1       60.1610   34.0260   34.4580 O.co2  48  ASP48      -0.2456
     20  OD2       58.9970   35.8300   34.9460 O.co2  48  ASP48      -0.2456
     21  N         61.9640   34.3080   37.8400 N.am   49  VAL49      -0.1980
     22  CA        61.5250   34.2600   39.2380 C.3    49  VAL49       0.1595
     23  C         62.6270   33.6490   40.0890 C.2    49  VAL49       0.2287
     24  O         62.8490   32.4360   40.0620 O.2    49  VAL49      -0.2864
     25  CB        60.2310   33.4230   39.4000 C.3    49  VAL49       0.0276
     26  CG1       59.8180   33.3830   40.8690 C.3    49  VAL49       0.0022
     27  CG2       59.1090   34.0220   38.5580 C.3    49  VAL49       0.0022
     28  N         53.1390   22.0920   35.8010 N.3   120  LYS120     -0.1245
     29  CA        53.4870   23.2430   36.6300 C.3   120  LYS120      0.1561
     30  C         54.1520   22.8660   37.9450 C.2   120  LYS120      0.2260
     31  O         54.6270   23.7400   38.6740 O.2   120  LYS120     -0.2867
     32  CB        52.2230   24.0410   36.9490 C.3   120  LYS120      0.0271
     33  CG        51.4310   24.4720   35.7280 C.3   120  LYS120      0.0035
     34  CD        52.2960   25.2910   34.7890 C.3   120  LYS120      0.0206
     35  CE        51.4650   25.9770   33.7270 C.3   120  LYS120      0.1093
     36  NZ        52.2910   26.8950   32.8980 N.3   120  LYS120     -0.1314
     37  N         45.8840   29.5230   37.3620 N.3   181  ASP181     -0.1225
     38  CA        47.1360   30.2530   37.2340 C.3   181  ASP181      0.1805
     39  C         46.8150   31.6620   36.7470 C.2   181  ASP181      0.2597
     40  O         46.1050   31.8310   35.7500 O.2   181  ASP181     -0.2718
     41  CB        48.0550   29.5380   36.2430 C.3   181  ASP181      0.1424
     42  CG        49.4700   30.0950   36.2520 C.2   181  ASP181      0.3668
     43  OD1       49.9940   30.3980   37.3470 O.co2 181  ASP181     -0.2456
     44  OD2       50.0670   30.2130   35.1650 O.co2 181  ASP181     -0.2456
     45  N         47.3290   32.6670   37.4570 N.am  182  PHE182     -0.1976
     46  CA        47.0760   34.0700   37.1210 C.3   182  PHE182      0.1639
     47  C         45.5950   34.3810   37.3140 C.2   182  PHE182      0.2290
     48  O         45.0670   35.3190   36.7120 O.2   182  PHE182     -0.2864
     49  CB        47.4820   34.3630   35.6710 C.3   182  PHE182      0.0560
     50  CG        48.9690   34.4290   35.4580 C.ar  182  PHE182     -0.0200
     51  CD1       49.6870   35.5600   35.8330 C.ar  182  PHE182     -0.0042
     52  CD2       49.6550   33.3500   34.9080 C.ar  182  PHE182     -0.0042
     53  CE1       51.0690   35.6170   35.6660 C.ar  182  PHE182     -0.0003
     54  CE2       51.0340   33.3970   34.7380 C.ar  182  PHE182     -0.0003
     55  CZ        51.7430   34.5350   35.1190 C.ar  182  PHE182     -0.0000
     56  N         52.9150   27.6320   44.7230 N.3   215  CYS215     -0.1221
     57  CA        51.9840   27.4620   43.6200 C.3   215  CYS215      0.1808
     58  C         52.9540   27.0110   42.5230 C.2   215  CYS215      0.2602
     59  O         53.7540   26.1110   42.7670 O.2   215  CYS215     -0.2717
     60  CB        51.2580   28.7700   43.2760 C.3   215  CYS215      0.0970
     61  SG        52.2310   30.3040   43.3340 S.3   215  CYS215     -0.0800
     62  N         52.9300   27.6060   41.3390 N.am  216  SER216     -0.1938
     63  CA        53.8870   27.1680   40.3350 C.3   216  SER216      0.2055
     64  C         55.1950   27.9540   40.4770 C.2   216  SER216      0.2642
     65  O         56.2700   27.3610   40.5970 O.2   216  SER216     -0.2714
     66  CB        53.3260   27.3320   38.9280 C.3   216  SER216      0.2130
     67  OG        54.1610   26.6300   38.0260 O.3   216  SER216     -0.2179
     68  N         55.0950   29.2800   40.4690 N.am  217  ALA217     -0.1977
     69  CA        56.2630   30.1450   40.6180 C.3   217  ALA217      0.1597
     70  C         56.5000   30.5410   42.0830 C.2   217  ALA217      0.2287
     71  O         57.6220   30.8920   42.4720 O.2   217  ALA217     -0.2864
     72  CB        56.0850   31.3870   39.7750 C.3   217  ALA217      0.0319
     73  N         54.7910   33.0980   43.7590 N.3   219  ILE219     -0.1231
     74  CA        54.6740   34.5350   43.9790 C.3   219  ILE219      0.1692
     75  C         53.2640   35.0830   43.7970 C.2   219  ILE219      0.2593
     76  O         52.8390   35.9610   44.5540 O.2   219  ILE219     -0.2718
     77  CB        55.6640   35.3410   43.0650 C.3   219  ILE219      0.0266
     78  CG1       55.3910   35.0500   41.5830 C.3   219  ILE219      0.0019
     79  CG2       57.0990   34.9730   43.4210 C.3   219  ILE219      0.0020
     80  CD1       56.3380   35.8010   40.6260 C.3   219  ILE219      0.0001
     81  N         52.5390   34.5620   42.8050 N.am  220  GLY220     -0.1942
     82  CA        51.1880   35.0290   42.5350 C.3   220  GLY220      0.2014
     83  C         50.1380   34.5600   43.5280 C.2   220  GLY220      0.2638
     84  O         49.6930   35.3180   44.3930 O.2   220  GLY220     -0.2714
     85  N         49.7230   33.3070   43.3890 N.am  221  ARG221     -0.1977
     86  CA        48.7250   32.7390   44.2820 C.3   221  ARG221      0.1597
     87  C         49.2910   32.6600   45.7050 C.2   221  ARG221      0.2287
     88  O         48.5870   32.9360   46.6750 O.2   221  ARG221     -0.2864
     89  CB        48.3120   31.3520   43.7730 C.3   221  ARG221      0.0334
     90  CG        47.3670   31.4300   42.5680 C.3   221  ARG221      0.0492
     91  CD        47.2010   30.0910   41.8490 C.3   221  ARG221      0.2205
     92  NE        48.3980   29.7250   41.0880 N.pl3 221  ARG221     -0.0865
     93  CZ        48.4900   28.6610   40.2930 C.cat 221  ARG221      0.5346
     94  NH1       47.4530   27.8440   40.1490 N.pl3 221  ARG221      0.1354
     95  NH2       49.6210   28.4190   39.6320 N.pl3 221  ARG221      0.1354
     96  N         50.5840   38.6080   41.3020 N.3   262  GLN262     -0.1245
     97  CA        50.8710   38.7760   39.8760 C.3   262  GLN262      0.1566
     98  C         49.9210   39.5430   38.9620 C.2   262  GLN262      0.2260
     99  O         50.2800   39.8450   37.8240 O.2   262  GLN262     -0.2867
    100  CB        51.1210   37.3960   39.2740 C.3   262  GLN262      0.0367
    101  CG        52.4490   36.8080   39.6900 C.3   262  GLN262      0.0905
    102  CD        53.5930   37.4230   38.9230 C.2   262  GLN262      0.2608
    103  OE1       53.7510   37.1710   37.7290 O.2   262  GLN262     -0.2717
    104  NE2       54.3930   38.2420   39.5970 N.am  262  GLN262     -0.0878
    105  N         44.2480   39.9980   41.3710 N.3   266  GLN266     -0.1245
    106  CA        44.6440   39.2280   42.5510 C.3   266  GLN266      0.1566
    107  C         44.7740   40.2100   43.7160 C.2   266  GLN266      0.2260
    108  O         44.5230   39.8610   44.8680 O.2   266  GLN266     -0.2867
    109  CB        45.9680   38.4900   42.3190 C.3   266  GLN266      0.0367
    110  CG        45.8680   37.3630   41.3010 C.3   266  GLN266      0.0905
    111  CD        47.1200   36.5150   41.2180 C.2   266  GLN266      0.2608
    112  OE1       48.2240   36.9840   41.5000 O.2   266  GLN266     -0.2717
    113  NE2       46.9570   35.2550   40.8140 N.am  266  GLN266     -0.0878
@<TRIPOS>BOND
     1    36    35    1
     2    35    34    1
     3    19    18   ar
     4    18    17    1
     5    18    20   ar
     6    54    52   ar
     7    54    55   ar
     8     9     7   ar
     9     9    11   ar
    10    34    33    1
    11    17    14    1
    12     7     6   ar
    13    52    50   ar
    14    55    53   ar
    15    44    42   ar
    16    13    14    1
    17    50    49    1
    18    50    51   ar
    19    53    51   ar
    20    49    46    1
    21    14    15    1
    22    33    32    1
    23    40    39    2
    24     2     3    1
    25     2     5    1
    26     2     1    1
    27    28    29    1
    28     3     4    2
    29    12    11    1
    30    11    10   ar
    31     6     5    1
    32     6     8   ar
    33    41    42    1
    34    41    38    1
    35    42    43   ar
    36    29    32    1
    37    29    30    1
    38    48    47    2
    39    39    38    1
    40    39    45   am
    41    46    47    1
    42    46    45    1
    43    15    16    2
    44    15    21   am
    45    10     8   ar
    46    38    37    1
    47   103   102    2
    48    99    98    2
    49    21    22    1
    50    30    31    2
    51    67    66    1
    52    27    25    1
    53   102   104   am
    54   102   101    1
    55    66    63    1
    56    98    97    1
    57    22    25    1
    58    22    23    1
    59   100   101    1
    60   100    97    1
    61    25    26    1
    62    95    93    1
    63    72    69    1
    64    97    96    1
    65    24    23    2
    66    94    93    1
    67    93    92    2
    68    63    64    1
    69    63    62    1
    70    68    64   am
    71    68    69    1
    72    64    65    2
    73    69    70    1
    74    80    78    1
    75   113   111   am
    76    92    91    1
    77   111   110    1
    78   111   112    2
    79   110   109    1
    80    62    58   am
    81   105   106    1
    82    78    77    1
    83    91    90    1
    84    70    71    2
    85   109   106    1
    86    58    59    2
    87    58    57    1
    88    82    81    1
    89    82    83    1
    90   106   107    1
    91    90    89    1
    92    81    75   am
    93    77    79    1
    94    77    74    1
    95    60    61    1
    96    60    57    1
    97    85    83   am
    98    85    86    1
    99    83    84    2
   100    57    56    1
   101   107   108    2
   102    73    74    1
   103    89    86    1
   104    75    74    1
   105    75    76    2
   106    86    87    1
   107    87    88    2
