@<TRIPOS>MOLECULE
tmp/2bgiA03.pdb
 101 97 0 0 0
SMALL
GASTEIGER

@<TRIPOS>ATOM
      1  N         71.1880   60.6620  -11.2070 N.3    58  TRP58      -0.1241
      2  CA        71.5480   61.9260  -11.8460 C.3    58  TRP58       0.1605
      3  C         72.9620   62.4370  -11.5590 C.2    58  TRP58       0.2264
      4  O         73.4170   63.3880  -12.1970 O.2    58  TRP58      -0.2867
      5  CB        70.5400   63.0190  -11.4760 C.3    58  TRP58       0.0550
      6  CG        70.4580   63.3290  -10.0110 C.ar   58  TRP58       0.0003
      7  CD1       69.6060   62.7730   -9.1020 C.ar   58  TRP58       0.0946
      8  CD2       71.2420   64.2890   -9.2900 C.ar   58  TRP58       0.0152
      9  NE1       69.8040   63.3300   -7.8620 N.ar   58  TRP58      -0.2442
     10  CE2       70.8030   64.2630   -7.9480 C.ar   58  TRP58       0.0810
     11  CE3       72.2730   65.1710   -9.6490 C.ar   58  TRP58       0.0012
     12  CZ2       71.3570   65.0850   -6.9600 C.ar   58  TRP58       0.0191
     13  CZ3       72.8240   65.9890   -8.6660 C.ar   58  TRP58       0.0001
     14  CH2       72.3640   65.9390   -7.3380 C.ar   58  TRP58       0.0015
     15  N         67.7300   58.3190   -1.3960 N.3   124  MET124     -0.1230
     16  CA        67.3750   59.5160   -0.6310 C.3   124  MET124      0.1702
     17  C         67.6910   60.7600   -1.4570 C.2   124  MET124      0.2592
     18  O         67.2050   61.8550   -1.1680 O.2   124  MET124     -0.2718
     19  CB        68.1440   59.5860    0.6920 C.3   124  MET124      0.0401
     20  CG        67.6170   58.6630    1.7830 C.3   124  MET124      0.0596
     21  SD        68.3390   59.0900    3.3840 S.3   124  MET124     -0.1393
     22  CE        69.9230   58.3400    3.2350 C.3   124  MET124      0.0692
     23  N         68.5110   60.5820   -2.4860 N.am  125  ARG125     -0.1980
     24  CA        68.8920   61.6840   -3.3570 C.3   125  ARG125      0.1597
     25  C         68.2130   61.5720   -4.7250 C.2   125  ARG125      0.2287
     26  O         68.5250   62.3210   -5.6550 O.2   125  ARG125     -0.2864
     27  CB        70.4200   61.7210   -3.4990 C.3   125  ARG125      0.0334
     28  CG        71.1170   62.1400   -2.2050 C.3   125  ARG125      0.0492
     29  CD        72.6310   62.2850   -2.3470 C.3   125  ARG125      0.2205
     30  NE        73.3420   61.0130   -2.2440 N.pl3 125  ARG125     -0.0865
     31  CZ        74.6580   60.9050   -2.0770 C.cat 125  ARG125      0.5346
     32  NH1       75.4120   61.9940   -1.9940 N.pl3 125  ARG125      0.1354
     33  NH2       75.2260   59.7090   -1.9880 N.pl3 125  ARG125      0.1354
     34  N         65.1090   62.1760   -6.9870 N.3   127  PRO127     -0.2116
     35  CA        63.8950   62.9930   -7.0810 C.3   127  PRO127      0.1372
     36  C         62.6040   62.1790   -7.1780 C.2   127  PRO127      0.2244
     37  O         61.5760   62.5830   -6.6350 O.2   127  PRO127     -0.2868
     38  CB        64.1430   63.8390   -8.3290 C.3   127  PRO127      0.0268
     39  CG        65.6370   63.9830   -8.3450 C.3   127  PRO127      0.0207
     40  CD        66.0950   62.5840   -8.0020 C.3   127  PRO127      0.0892
     41  N         60.5550   61.3300   -3.9980 N.3   130  TYR130     -0.1227
     42  CA        59.7420   62.3910   -3.4090 C.3   130  TYR130      0.1736
     43  C         58.5990   62.8100   -4.3280 C.2   130  TYR130      0.2595
     44  O         57.8240   63.7110   -4.0100 O.2   130  TYR130     -0.2718
     45  CB        60.6320   63.5920   -3.1000 C.3   130  TYR130      0.0548
     46  CG        61.7870   63.2450   -2.1880 C.ar  130  TYR130     -0.0200
     47  CD1       61.6030   63.1310   -0.8120 C.ar  130  TYR130     -0.0009
     48  CD2       63.0560   62.9950   -2.7060 C.ar  130  TYR130     -0.0009
     49  CE1       62.6550   62.7780    0.0280 C.ar  130  TYR130      0.0417
     50  CE2       64.1160   62.6390   -1.8750 C.ar  130  TYR130      0.0417
     51  CZ        63.9090   62.5330   -0.5090 C.ar  130  TYR130      0.1957
     52  OH        64.9510   62.1830    0.3180 O.3   130  TYR130     -0.2866
     53  N         58.5070   62.1460   -5.4720 N.am  131  GLU131     -0.1979
     54  CA        57.4660   62.4300   -6.4430 C.3   131  GLU131      0.1602
     55  C         56.4040   61.3380   -6.3740 C.2   131  GLU131      0.2287
     56  O         55.2170   61.6210   -6.2160 O.2   131  GLU131     -0.2864
     57  CB        58.0750   62.4850   -7.8450 C.3   131  GLU131      0.0415
     58  CG        57.0860   62.7710   -8.9570 C.3   131  GLU131      0.1163
     59  CD        57.7550   62.8440  -10.3170 C.2   131  GLU131      0.3649
     60  OE1       58.5820   63.7610  -10.5290 O.co2 131  GLU131     -0.2457
     61  OE2       57.4580   61.9820  -11.1740 O.co2 131  GLU131     -0.2457
     62  N         71.3690   67.0830    3.0520 N.3   158  LEU158     -0.1245
     63  CA        70.1150   67.2320    2.3220 C.3   158  LEU158      0.1561
     64  C         69.1540   68.1880    3.0210 C.2   158  LEU158      0.2260
     65  O         68.5450   69.0490    2.3860 O.2   158  LEU158     -0.2867
     66  CB        69.4290   65.8730    2.1590 C.3   158  LEU158      0.0270
     67  CG        70.1090   64.8030    1.3050 C.3   158  LEU158      0.0019
     68  CD1       69.3090   63.5130    1.3910 C.3   158  LEU158      0.0001
     69  CD2       70.2010   65.2730   -0.1350 C.3   158  LEU158      0.0001
     70  N         67.3560   73.0510   -1.6370 N.3   164  ILE164     -0.1245
     71  CA        66.2910   72.1310   -1.2500 C.3   164  ILE164      0.1561
     72  C         66.2130   71.8600    0.2480 C.2   164  ILE164      0.2260
     73  O         65.2130   71.3290    0.7290 O.2   164  ILE164     -0.2867
     74  CB        66.4330   70.7780   -1.9660 C.3   164  ILE164      0.0252
     75  CG1       67.7450   70.1110   -1.5550 C.3   164  ILE164      0.0019
     76  CG2       66.3860   70.9800   -3.4720 C.3   164  ILE164      0.0019
     77  CD1       67.8870   68.7070   -2.0670 C.3   164  ILE164      0.0001
     78  N         62.8820   72.2040    1.4570 N.3   167  LEU167     -0.1231
     79  CA        61.8890   71.5720    0.6040 C.3   167  LEU167      0.1693
     80  C         61.8880   70.0860    0.9530 C.2   167  LEU167      0.2591
     81  O         60.9420   69.3600    0.6470 O.2   167  LEU167     -0.2718
     82  CB        62.2680   71.7760   -0.8650 C.3   167  LEU167      0.0284
     83  CG        61.3240   71.2320   -1.9380 C.3   167  LEU167      0.0019
     84  CD1       59.9440   71.8540   -1.7830 C.3   167  LEU167      0.0001
     85  CD2       61.8990   71.5390   -3.3140 C.3   167  LEU167      0.0001
     86  N         62.9650   69.6490    1.6010 N.am  168  VAL168     -0.1980
     87  CA        63.1230   68.2620    2.0220 C.3   168  VAL168      0.1595
     88  C         62.5600   68.0700    3.4270 C.2   168  VAL168      0.2287
     89  O         62.1380   66.9720    3.7910 O.2   168  VAL168     -0.2864
     90  CB        64.6190   67.8400    1.9900 C.3   168  VAL168      0.0276
     91  CG1       64.9410   66.8960    3.1440 C.3   168  VAL168      0.0022
     92  CG2       64.9250   67.1560    0.6670 C.3   168  VAL168      0.0022
     93  N         59.5990   65.9450    4.3630 N.3   171  LYS171     -0.1245
     94  CA        59.5490   64.9010    3.3460 C.3   171  LYS171      0.1561
     95  C         60.5160   63.7670    3.6690 C.2   171  LYS171      0.2260
     96  O         60.1940   62.5960    3.4790 O.2   171  LYS171     -0.2867
     97  CB        59.8810   65.4790    1.9700 C.3   171  LYS171      0.0271
     98  CG        58.8590   66.4730    1.4470 C.3   171  LYS171      0.0035
     99  CD        59.2450   66.9590    0.0600 C.3   171  LYS171      0.0206
    100  CE        58.2380   67.9610   -0.4800 C.3   171  LYS171      0.1093
    101  NZ        56.8880   67.3550   -0.6270 N.3   171  LYS171     -0.1314
@<TRIPOS>BOND
     1     4     3    2
     2     2     3    1
     3     2     5    1
     4     2     1    1
     5     5     6    1
     6    61    59   ar
     7    60    59   ar
     8    59    58    1
     9     6     8   ar
    10     6     7   ar
    11    11     8   ar
    12    11    13   ar
    13     8    10   ar
    14     7     9   ar
    15    58    57    1
    16    13    14   ar
    17    39    38    1
    18    39    40    1
    19    38    35    1
    20    40    34    1
    21    10     9   ar
    22    10    12   ar
    23    57    54    1
    24    14    12   ar
    25    36    35    1
    26    36    37    2
    27    35    34    1
    28    54    55    1
    29    54    53    1
    30    55    56    2
    31    26    25    2
    32    53    43   am
    33    25    24    1
    34    43    44    2
    35    43    42    1
    36    41    42    1
    37    27    24    1
    38    27    28    1
    39    76    74    1
    40    42    45    1
    41    24    23    1
    42    85    83    1
    43    45    46    1
    44    48    46   ar
    45    48    50   ar
    46    23    17   am
    47    29    30    1
    48    29    28    1
    49    30    31    2
    50    46    47   ar
    51    31    32    1
    52    31    33    1
    53    77    75    1
    54    74    75    1
    55    74    71    1
    56    83    84    1
    57    83    82    1
    58    50    51   ar
    59    70    71    1
    60    17    18    2
    61    17    16    1
    62    15    16    1
    63    71    72    1
    64    82    79    1
    65    47    49   ar
    66    16    19    1
    67   101   100    1
    68    51    49   ar
    69    51    52    1
    70   100    99    1
    71    69    67    1
    72    99    98    1
    73    72    73    2
    74    79    80    1
    75    79    78    1
    76    81    80    2
    77    92    90    1
    78    19    20    1
    79    80    86   am
    80    67    68    1
    81    67    66    1
    82    98    97    1
    83    86    87    1
    84    20    21    1
    85    97    94    1
    86    90    87    1
    87    90    91    1
    88    87    88    1
    89    66    63    1
    90    63    64    1
    91    63    62    1
    92    65    64    2
    93    22    21    1
    94    94    95    1
    95    94    93    1
    96    88    89    2
    97    96    95    2
