@<TRIPOS>MOLECULE
tmp/2bgiA01.pdb
 111 105 0 0 0
SMALL
GASTEIGER

@<TRIPOS>ATOM
      1  N         84.4070   57.9080   -4.2680 N.3    20  ARG20      -0.1245
      2  CA        83.7000   58.2760   -5.4750 C.3    20  ARG20       0.1563
      3  C         84.6130   57.9750   -6.6480 C.2    20  ARG20       0.2260
      4  O         85.8360   58.0550   -6.5320 O.2    20  ARG20      -0.2867
      5  CB        83.3050   59.7550   -5.4250 C.3    20  ARG20       0.0307
      6  CG        82.2080   60.0400   -4.3980 C.3    20  ARG20       0.0489
      7  CD        81.9640   61.5320   -4.2120 C.3    20  ARG20       0.2205
      8  NE        81.4220   62.1640   -5.4100 N.pl3  20  ARG20      -0.0865
      9  CZ        80.1470   62.1120   -5.7800 C.cat  20  ARG20       0.5346
     10  NH1       79.2620   61.4530   -5.0440 N.pl3  20  ARG20       0.1354
     11  NH2       79.7560   62.7260   -6.8890 N.pl3  20  ARG20       0.1354
     12  N         75.2510   56.6970   -5.0320 N.3    55  SER55      -0.1203
     13  CA        74.9290   58.0040   -5.5780 C.3    55  SER55       0.2005
     14  C         73.6830   57.8580   -6.4480 C.2    55  SER55       0.2460
     15  O         73.4560   56.8000   -7.0370 O.2    55  SER55      -0.2732
     16  CB        76.0970   58.5220   -6.4200 C.3    55  SER55       0.2103
     17  OG        76.5250   57.5460   -7.3480 O.3    55  SER55      -0.2182
     18  N         72.8600   58.9140   -6.5300 N.am   56  PRO56      -0.2728
     19  CA        71.6290   58.9130   -7.3300 C.3    56  PRO56       0.1401
     20  C         71.9270   58.7980   -8.8280 C.2    56  PRO56       0.2269
     21  O         73.0360   59.0760   -9.2710 O.2    56  PRO56      -0.2865
     22  CB        70.9790   60.2450   -6.9560 C.3    56  PRO56       0.0296
     23  CG        72.1630   61.1280   -6.7030 C.3    56  PRO56       0.0237
     24  CD        73.0640   60.2270   -5.8880 C.3    56  PRO56       0.0939
     25  N         71.1880   60.6620  -11.2070 N.3    58  TRP58      -0.1227
     26  CA        71.5480   61.9260  -11.8460 C.3    58  TRP58       0.1737
     27  C         72.9620   62.4370  -11.5590 C.2    58  TRP58       0.2595
     28  O         73.4170   63.3880  -12.1970 O.2    58  TRP58      -0.2718
     29  CB        70.5400   63.0190  -11.4760 C.3    58  TRP58       0.0564
     30  CG        70.4580   63.3290  -10.0110 C.ar   58  TRP58       0.0003
     31  CD1       69.6060   62.7730   -9.1020 C.ar   58  TRP58       0.0946
     32  CD2       71.2420   64.2890   -9.2900 C.ar   58  TRP58       0.0152
     33  NE1       69.8040   63.3300   -7.8620 N.ar   58  TRP58      -0.2442
     34  CE2       70.8030   64.2630   -7.9480 C.ar   58  TRP58       0.0810
     35  CE3       72.2730   65.1710   -9.6490 C.ar   58  TRP58       0.0012
     36  CZ2       71.3570   65.0850   -6.9600 C.ar   58  TRP58       0.0191
     37  CZ3       72.8240   65.9890   -8.6660 C.ar   58  TRP58       0.0001
     38  CH2       72.3640   65.9390   -7.3380 C.ar   58  TRP58       0.0015
     39  N         73.6570   61.8160  -10.6090 N.am   59  ASP59      -0.1974
     40  CA        75.0130   62.2400  -10.2580 C.3    59  ASP59       0.1709
     41  C         75.9880   61.8200  -11.3540 C.2    59  ASP59       0.2293
     42  O         76.0040   60.6590  -11.7610 O.2    59  ASP59      -0.2864
     43  CB        75.4420   61.6030   -8.9320 C.3    59  ASP59       0.1436
     44  CG        76.6730   62.2670   -8.3290 C.2    59  ASP59       0.3671
     45  OD1       77.5540   62.7160   -9.0900 O.co2  59  ASP59      -0.2456
     46  OD2       76.7690   62.3270   -7.0830 O.co2  59  ASP59      -0.2456
     47  N         79.3330   56.9020   -6.4260 N.3    63  GLU63      -0.1245
     48  CA        79.7660   56.8680   -5.0350 C.3    63  GLU63       0.1567
     49  C         79.5140   55.4660   -4.4900 C.2    63  GLU63       0.2260
     50  O         78.5620   54.8000   -4.8990 O.2    63  GLU63      -0.2867
     51  CB        78.9810   57.8950   -4.2120 C.3    63  GLU63       0.0388
     52  CG        79.4020   57.9820   -2.7470 C.3    63  GLU63       0.1160
     53  CD        78.8060   59.1920   -2.0500 C.2    63  GLU63       0.3649
     54  OE1       78.9950   60.3150   -2.5580 O.co2  63  GLU63      -0.2457
     55  OE2       78.1590   59.0290   -0.9960 O.co2  63  GLU63      -0.2457
     56  N         68.5110   60.5820   -2.4860 N.3   125  ARG125     -0.1245
     57  CA        68.8920   61.6840   -3.3570 C.3   125  ARG125      0.1563
     58  C         68.2130   61.5720   -4.7250 C.2   125  ARG125      0.2260
     59  O         68.5250   62.3210   -5.6550 O.2   125  ARG125     -0.2867
     60  CB        70.4200   61.7210   -3.4990 C.3   125  ARG125      0.0307
     61  CG        71.1170   62.1400   -2.2050 C.3   125  ARG125      0.0489
     62  CD        72.6310   62.2850   -2.3470 C.3   125  ARG125      0.2205
     63  NE        73.3420   61.0130   -2.2440 N.pl3 125  ARG125     -0.0865
     64  CZ        74.6580   60.9050   -2.0770 C.cat 125  ARG125      0.5346
     65  NH1       75.4120   61.9940   -1.9940 N.pl3 125  ARG125      0.1354
     66  NH2       75.2260   59.7090   -1.9880 N.pl3 125  ARG125      0.1354
     67  N         75.1110   62.6870    5.2830 N.3   154  LEU154     -0.1245
     68  CA        74.3840   62.7450    4.0250 C.3   154  LEU154      0.1561
     69  C         73.0090   63.3580    4.2810 C.2   154  LEU154      0.2260
     70  O         72.5970   64.2860    3.5840 O.2   154  LEU154     -0.2867
     71  CB        74.2330   61.3380    3.4270 C.3   154  LEU154      0.0270
     72  CG        73.5270   61.1960    2.0710 C.3   154  LEU154      0.0019
     73  CD1       73.6970   59.7710    1.5660 C.3   154  LEU154      0.0001
     74  CD2       72.0510   61.5380    2.1870 C.3   154  LEU154      0.0001
     75  N         73.2880   66.9770    5.0380 N.3   157  ALA157     -0.1231
     76  CA        73.5750   67.7400    3.8270 C.3   157  ALA157      0.1694
     77  C         72.3130   68.0190    3.0200 C.2   157  ALA157      0.2591
     78  O         72.1980   69.0650    2.3800 O.2   157  ALA157     -0.2718
     79  CB        74.5880   66.9940    2.9670 C.3   157  ALA157      0.0304
     80  N         71.3690   67.0830    3.0520 N.am  158  LEU158     -0.1980
     81  CA        70.1150   67.2320    2.3220 C.3   158  LEU158      0.1596
     82  C         69.1540   68.1880    3.0210 C.2   158  LEU158      0.2287
     83  O         68.5450   69.0490    2.3860 O.2   158  LEU158     -0.2864
     84  CB        69.4290   65.8730    2.1590 C.3   158  LEU158      0.0297
     85  CG        70.1090   64.8030    1.3050 C.3   158  LEU158      0.0022
     86  CD1       69.3090   63.5130    1.3910 C.3   158  LEU158      0.0001
     87  CD2       70.2010   65.2730   -0.1350 C.3   158  LEU158      0.0001
     88  N         70.8500   71.8280    3.1150 N.3   161  ASP161     -0.1239
     89  CA        71.1490   72.4960    1.8510 C.3   161  ASP161      0.1674
     90  C         70.3330   73.7690    1.6240 C.2   161  ASP161      0.2266
     91  O         69.1220   73.7890    1.8200 O.2   161  ASP161     -0.2867
     92  CB        70.9370   71.5320    0.6820 C.3   161  ASP161      0.1410
     93  CG        71.2960   72.1500   -0.6550 C.2   161  ASP161      0.3668
     94  OD1       70.4690   72.9030   -1.2090 O.co2 161  ASP161     -0.2456
     95  OD2       72.4150   71.8910   -1.1460 O.co2 161  ASP161     -0.2456
     96  N         69.3640   75.3840   -1.1490 N.3   163  LEU163     -0.1231
     97  CA        68.3240   75.2240   -2.1590 C.3   163  LEU163      0.1693
     98  C         67.1420   74.3610   -1.7190 C.2   163  LEU163      0.2591
     99  O         66.0530   74.8760   -1.4600 O.2   163  LEU163     -0.2718
    100  CB        68.9280   74.6460   -3.4420 C.3   163  LEU163      0.0284
    101  CG        69.9720   75.5170   -4.1460 C.3   163  LEU163      0.0019
    102  CD1       70.5240   74.7830   -5.3580 C.3   163  LEU163      0.0001
    103  CD2       69.3410   76.8370   -4.5630 C.3   163  LEU163      0.0001
    104  N         67.3560   73.0510   -1.6370 N.am  164  ILE164     -0.1980
    105  CA        66.2910   72.1310   -1.2500 C.3   164  ILE164      0.1595
    106  C         66.2130   71.8600    0.2480 C.2   164  ILE164      0.2287
    107  O         65.2130   71.3290    0.7290 O.2   164  ILE164     -0.2864
    108  CB        66.4330   70.7780   -1.9660 C.3   164  ILE164      0.0276
    109  CG1       67.7450   70.1110   -1.5550 C.3   164  ILE164      0.0022
    110  CG2       66.3860   70.9800   -3.4720 C.3   164  ILE164      0.0022
    111  CD1       67.8870   68.7070   -2.0670 C.3   164  ILE164      0.0001
@<TRIPOS>BOND
     1    28    27    2
     2    26    27    1
     3    26    29    1
     4    26    25    1
     5    42    41    2
     6    27    39   am
     7    29    30    1
     8    41    40    1
     9    39    40    1
    10    40    43    1
    11    30    32   ar
    12    30    31   ar
    13    35    32   ar
    14    35    37   ar
    15    32    34   ar
    16    21    20    2
    17    31    33   ar
    18    45    44   ar
    19    43    44    1
    20    20    19    1
    21    37    38   ar
    22    44    46   ar
    23    34    33   ar
    24    34    36   ar
    25    17    16    1
    26    38    36   ar
    27    19    22    1
    28    19    18    1
    29    15    14    2
    30    22    23    1
    31    11     9    1
    32    23    24    1
    33     3     4    2
    34     3     2    1
    35    18    14   am
    36    18    24    1
    37    14    13    1
    38    47    48    1
    39    16    13    1
    40     9     8    2
    41     9    10    1
    42    59    58    2
    43    13    12    1
    44     2     5    1
    45     2     1    1
    46     5     6    1
    47     8     7    1
    48   102   101    1
    49    48    49    1
    50    48    51    1
    51    50    49    2
    52    58    57    1
    53   103   101    1
    54     6     7    1
    55    51    52    1
    56   101   100    1
    57    60    57    1
    58    60    61    1
    59   110   108    1
    60   100    97    1
    61    57    56    1
    62    52    53    1
    63    54    53   ar
    64    62    63    1
    65    62    61    1
    66    63    64    2
    67    97    98    1
    68    97    96    1
    69    64    65    1
    70    64    66    1
    71   111   109    1
    72    53    55   ar
    73   108   109    1
    74   108   105    1
    75    98   104   am
    76    98    99    2
    77   104   105    1
    78   105   106    1
    79    94    93   ar
    80    95    93   ar
    81    93    92    1
    82    87    85    1
    83   106   107    2
    84    92    89    1
    85    85    86    1
    86    85    84    1
    87    73    72    1
    88    90    91    2
    89    90    89    1
    90    89    88    1
    91    72    74    1
    92    72    71    1
    93    84    81    1
    94    81    82    1
    95    81    80    1
    96    78    77    2
    97    83    82    2
    98    79    76    1
    99    77    80   am
   100    77    76    1
   101    71    68    1
   102    70    69    2
   103    76    75    1
   104    68    69    1
   105    68    67    1
