@<TRIPOS>MOLECULE
tmp/2bgiA02.pdb
 78 73 0 0 0
SMALL
GASTEIGER

@<TRIPOS>ATOM
      1  N         87.8490   50.3320  -16.3940 N.3     3  ALA3       -0.1245
      2  CA        88.6160   50.8370  -15.2610 C.3     3  ALA3        0.1562
      3  C         88.2040   52.2910  -15.0850 C.2     3  ALA3        0.2260
      4  O         88.1450   53.0410  -16.0580 O.2     3  ALA3       -0.2867
      5  CB        90.1100   50.7410  -15.5390 C.3     3  ALA3        0.0290
      6  N         89.0540   44.9060   -8.1980 N.3    39  LEU39      -0.1231
      7  CA        90.4560   45.2280   -8.4250 C.3    39  LEU39       0.1693
      8  C         91.1350   43.9940   -8.9870 C.2    39  LEU39       0.2591
      9  O         90.5460   42.9130   -9.0270 O.2    39  LEU39      -0.2718
     10  CB        91.1390   45.5980   -7.1050 C.3    39  LEU39       0.0284
     11  CG        90.6370   46.8210   -6.3460 C.3    39  LEU39       0.0019
     12  CD1       91.3220   46.8880   -4.9830 C.3    39  LEU39       0.0001
     13  CD2       90.9210   48.0730   -7.1520 C.3    39  LEU39       0.0001
     14  N         92.3810   44.1560   -9.4150 N.am   40  LEU40      -0.1980
     15  CA        93.1460   43.0390   -9.9460 C.3    40  LEU40       0.1596
     16  C         94.0950   42.5810   -8.8520 C.2    40  LEU40       0.2287
     17  O         94.6850   43.4090   -8.1590 O.2    40  LEU40      -0.2864
     18  CB        93.9510   43.4800  -11.1710 C.3    40  LEU40       0.0297
     19  CG        93.1420   43.9690  -12.3730 C.3    40  LEU40       0.0022
     20  CD1       94.0740   44.5360  -13.4390 C.3    40  LEU40       0.0001
     21  CD2       92.3280   42.8130  -12.9240 C.3    40  LEU40       0.0001
     22  N         92.1440   44.7610    0.0080 N.3    77  ARG77      -0.1245
     23  CA        92.8950   45.5420   -0.9770 C.3    77  ARG77       0.1563
     24  C         92.2260   46.8960   -1.2350 C.2    77  ARG77       0.2260
     25  O         92.8870   47.9440   -1.2550 O.2    77  ARG77      -0.2867
     26  CB        92.9900   44.7750   -2.3030 C.3    77  ARG77       0.0307
     27  CG        93.6870   43.4220   -2.2240 C.3    77  ARG77       0.0489
     28  CD        93.6540   42.7200   -3.5860 C.3    77  ARG77       0.2205
     29  NE        94.5550   41.5690   -3.6690 N.pl3  77  ARG77      -0.0865
     30  CZ        94.3840   40.4150   -3.0270 C.cat  77  ARG77       0.5346
     31  NH1       93.3350   40.2240   -2.2330 N.pl3  77  ARG77       0.1354
     32  NH2       95.2710   39.4400   -3.1850 N.pl3  77  ARG77       0.1354
     33  N         92.6570   51.9190   -1.4420 N.3    81  ILE81      -0.1245
     34  CA        92.5270   52.6900   -2.6710 C.3    81  ILE81       0.1561
     35  C         92.7310   54.1780   -2.3970 C.2    81  ILE81       0.2260
     36  O         92.2500   54.7060   -1.3950 O.2    81  ILE81      -0.2867
     37  CB        91.1330   52.4470   -3.3340 C.3    81  ILE81       0.0252
     38  CG1       91.1790   52.8350   -4.8120 C.3    81  ILE81       0.0019
     39  CG2       90.0510   53.2340   -2.6090 C.3    81  ILE81       0.0019
     40  CD1       92.0230   51.8920   -5.6570 C.3    81  ILE81       0.0001
     41  N         93.1290   58.9750   -7.6240 N.3    84  GLY84      -0.1210
     42  CA        94.0570   58.8310   -8.7290 C.3    84  GLY84       0.1956
     43  C         94.2660   57.3880   -9.1340 C.2    84  GLY84       0.2612
     44  O         94.6710   57.1140  -10.2590 O.2    84  GLY84      -0.2717
     45  N         94.0180   56.4550   -8.2180 N.am   85  GLU85      -0.1965
     46  CA        94.1670   55.0430   -8.5470 C.3    85  GLU85       0.1733
     47  C         92.8440   54.6060   -9.1720 C.2    85  GLU85       0.2616
     48  O         91.8630   55.3490   -9.1250 O.2    85  GLU85      -0.2715
     49  CB        94.4950   54.2250   -7.2900 C.3    85  GLU85       0.0429
     50  CG        95.8410   54.6130   -6.6710 C.3    85  GLU85       0.1163
     51  CD        96.2070   53.7790   -5.4620 C.2    85  GLU85       0.3649
     52  OE1       95.2920   53.3920   -4.7070 O.co2  85  GLU85      -0.2457
     53  OE2       97.4140   53.5240   -5.2540 O.co2  85  GLU85      -0.2457
     54  N         92.8080   53.4180   -9.7590 N.am   86  GLN86      -0.1963
     55  CA        91.5850   52.9640  -10.4120 C.3    86  GLN86       0.1733
     56  C         91.0190   51.6380   -9.9140 C.2    86  GLN86       0.2616
     57  O         91.7380   50.8000   -9.3680 O.2    86  GLN86      -0.2715
     58  CB        91.8140   52.8540  -11.9260 C.3    86  GLN86       0.0408
     59  CG        92.2420   54.1450  -12.5940 C.3    86  GLN86       0.0908
     60  CD        92.2820   54.0280  -14.1140 C.2    86  GLN86       0.2608
     61  OE1       92.9540   53.1520  -14.6650 O.2    86  GLN86      -0.2717
     62  NE2       91.5620   54.9110  -14.7930 N.am   86  GLN86      -0.0878
     63  N         89.7130   51.4720  -10.1060 N.am   87  ILE87      -0.1963
     64  CA        89.0200   50.2410   -9.7510 C.3    87  ILE87       0.1727
     65  C         88.4310   49.6980  -11.0500 C.2    87  ILE87       0.2616
     66  O         88.4390   50.3870  -12.0760 O.2    87  ILE87      -0.2715
     67  CB        87.8450   50.4800   -8.7700 C.3    87  ILE87       0.0290
     68  CG1       86.7880   51.3750   -9.4170 C.3    87  ILE87       0.0022
     69  CG2       88.3590   51.0980   -7.4860 C.3    87  ILE87       0.0023
     70  CD1       85.4440   51.3750   -8.6740 C.3    87  ILE87       0.0001
     71  N         87.9320   48.4700  -10.9990 N.am   88  ILE88      -0.1977
     72  CA        87.3060   47.8220  -12.1500 C.3    88  ILE88       0.1596
     73  C         85.7980   47.9320  -11.9430 C.2    88  ILE88       0.2287
     74  O         85.3180   47.8660  -10.8080 O.2    88  ILE88      -0.2864
     75  CB        87.6660   46.3250  -12.2220 C.3    88  ILE88       0.0276
     76  CG1       89.1800   46.1490  -12.3010 C.3    88  ILE88       0.0022
     77  CG2       86.9990   45.6900  -13.4310 C.3    88  ILE88       0.0022
     78  CD1       89.6200   44.6990  -12.2520 C.3    88  ILE88       0.0001
@<TRIPOS>BOND
     1     1     2    1
     2     4     3    2
     3     5     2    1
     4     2     3    1
     5    62    60   am
     6    61    60    2
     7    60    59    1
     8    20    19    1
     9    77    75    1
    10    21    19    1
    11    59    58    1
    12    19    18    1
    13    76    78    1
    14    76    75    1
    15    75    72    1
    16    72    73    1
    17    72    71    1
    18    66    65    2
    19    73    74    2
    20    58    55    1
    21    18    15    1
    22    65    71   am
    23    65    64    1
    24    55    56    1
    25    55    54    1
    26    44    43    2
    27    63    56   am
    28    63    64    1
    29    15    14    1
    30    15    16    1
    31    56    57    2
    32    54    47   am
    33    64    67    1
    34    68    67    1
    35    68    70    1
    36    14     8   am
    37    47    48    2
    38    47    46    1
    39    43    42    1
    40    43    45   am
    41     9     8    2
    42     8     7    1
    43    16    17    2
    44    67    69    1
    45    42    41    1
    46    46    45    1
    47    46    49    1
    48     7     6    1
    49     7    10    1
    50    49    50    1
    51    13    11    1
    52    10    11    1
    53    50    51    1
    54    11    12    1
    55    40    38    1
    56    51    53   ar
    57    51    52   ar
    58    38    37    1
    59    29    28    1
    60    29    30    2
    61    28    27    1
    62    37    34    1
    63    37    39    1
    64    32    30    1
    65    30    31    1
    66    34    35    1
    67    34    33    1
    68    35    36    2
    69    26    27    1
    70    26    23    1
    71    25    24    2
    72    24    23    1
    73    23    22    1
