@<TRIPOS>MOLECULE
tmp/2bgjA00.pdb
 186 183 0 0 0
SMALL
GASTEIGER

@<TRIPOS>ATOM
      1  N         33.0560   -1.1980   45.4110 N.3    37  PHE37      -0.1241
      2  CA        33.5140    0.1010   45.9230 C.3    37  PHE37       0.1605
      3  C         34.9220    0.4180   45.4670 C.2    37  PHE37       0.2264
      4  O         35.6120   -0.4790   44.9840 O.2    37  PHE37      -0.2867
      5  CB        33.3910    0.2060   47.4530 C.3    37  PHE37       0.0534
      6  CG        34.3070   -0.6990   48.2380 C.ar   37  PHE37      -0.0203
      7  CD1       33.8470   -1.9260   48.7150 C.ar   37  PHE37      -0.0042
      8  CD2       35.5980   -0.2910   48.5740 C.ar   37  PHE37      -0.0042
      9  CE1       34.6710   -2.7480   49.4700 C.ar   37  PHE37      -0.0003
     10  CE2       36.4250   -1.0870   49.3340 C.ar   37  PHE37      -0.0003
     11  CZ        35.9640   -2.3270   49.7880 C.ar   37  PHE37      -0.0000
     12  N         39.3490    7.3480   51.3730 N.3    52  ARG52      -0.1231
     13  CA        38.1620    6.7490   51.9750 C.3    52  ARG52       0.1694
     14  C         37.5090    5.8150   50.9560 C.2    52  ARG52       0.2592
     15  O         37.5790    6.1080   49.7620 O.2    52  ARG52      -0.2718
     16  CB        37.1550    7.8370   52.4120 C.3    52  ARG52       0.0321
     17  CG        37.6300    8.7130   53.5750 C.3    52  ARG52       0.0489
     18  CD        37.7850    7.9590   54.8960 C.3    52  ARG52       0.2205
     19  NE        38.1700    8.8380   56.0120 N.pl3  52  ARG52      -0.0865
     20  CZ        39.4450    9.1820   56.2980 C.cat  52  ARG52       0.5346
     21  NH1       40.4490    8.7420   55.5300 N.pl3  52  ARG52       0.1354
     22  NH2       39.7130    9.9760   57.3330 N.pl3  52  ARG52       0.1354
     23  N         36.9080    4.7100   51.4290 N.am   53  ALA53      -0.1966
     24  CA        36.1650    3.7900   50.5800 C.3    53  ALA53       0.1728
     25  C         34.8040    4.3550   50.1890 C.2    53  ALA53       0.2616
     26  O         34.0640    4.8660   51.0380 O.2    53  ALA53      -0.2715
     27  CB        35.9620    2.4600   51.3030 C.3    53  ALA53       0.0334
     28  N         34.4580    4.2580   48.9220 N.am   54  TYR54      -0.1960
     29  CA        33.1200    4.6380   48.4990 C.3    54  TYR54       0.1771
     30  C         32.5370    3.6120   47.5040 C.2    54  TYR54       0.2620
     31  O         33.1940    3.2450   46.5280 O.2    54  TYR54      -0.2715
     32  CB        33.1580    6.0220   47.8390 C.3    54  TYR54       0.0574
     33  CG        32.9570    7.1930   48.7850 C.ar   54  TYR54      -0.0198
     34  CD1       33.9950    7.6460   49.6260 C.ar   54  TYR54      -0.0009
     35  CD2       31.7360    7.8540   48.8400 C.ar   54  TYR54      -0.0009
     36  CE1       33.8120    8.7350   50.4770 C.ar   54  TYR54       0.0417
     37  CE2       31.5410    8.9220   49.6830 C.ar   54  TYR54       0.0417
     38  CZ        32.5800    9.3690   50.4900 C.ar   54  TYR54       0.1957
     39  OH        32.3400   10.4370   51.3280 O.3    54  TYR54      -0.2866
     40  N         31.2960    3.1760   47.7360 N.am   55  SER55      -0.1950
     41  CA        30.5730    2.3560   46.7540 C.3    55  SER55       0.1924
     42  C         30.3520    3.2540   45.5510 C.2    55  SER55       0.2314
     43  O         30.1300    4.4550   45.7050 O.2    55  SER55      -0.2863
     44  CB        29.2240    1.8900   47.2980 C.3    55  SER55       0.2116
     45  OG        29.3400    1.3970   48.6460 O.3    55  SER55      -0.2180
     46  N         27.3340    8.7970   46.3920 N.3    68  TYR68      -0.1227
     47  CA        26.3560    9.3310   47.3520 C.3    68  TYR68       0.1736
     48  C         27.0710    9.3680   48.6780 C.2    68  TYR68       0.2596
     49  O         27.5180    8.3230   49.1680 O.2    68  TYR68      -0.2718
     50  CB        25.1330    8.4150   47.3990 C.3    68  TYR68       0.0548
     51  CG        24.0110    8.8170   48.3280 C.ar   68  TYR68      -0.0200
     52  CD1       23.3880   10.0570   48.2170 C.ar   68  TYR68      -0.0009
     53  CD2       23.5500    7.9280   49.3160 C.ar   68  TYR68      -0.0009
     54  CE1       22.3450   10.4160   49.0700 C.ar   68  TYR68       0.0417
     55  CE2       22.5130    8.2720   50.1550 C.ar   68  TYR68       0.0417
     56  CZ        21.9010    9.5040   50.0290 C.ar   68  TYR68       0.1957
     57  OH        20.8640    9.8410   50.8610 O.3    68  TYR68      -0.2866
     58  N         27.2120   10.5650   49.2430 N.am   69  SER69      -0.1938
     59  CA        28.0830   10.7800   50.4050 C.3    69  SER69       0.2055
     60  C         27.4280   11.4530   51.6190 C.2    69  SER69       0.2642
     61  O         26.6210   12.3760   51.4930 O.2    69  SER69      -0.2714
     62  CB        29.3090   11.6090   49.9900 C.3    69  SER69       0.2130
     63  OG        30.1720   11.8540   51.1020 O.3    69  SER69      -0.2179
     64  N         27.8140   10.9870   52.7990 N.am   70  ILE70      -0.1977
     65  CA        27.5730   11.7070   54.0480 C.3    70  ILE70       0.1596
     66  C         28.3370   13.0500   54.1020 C.2    70  ILE70       0.2287
     67  O         29.2780   13.3010   53.3150 O.2    70  ILE70      -0.2864
     68  CB        28.0200   10.8050   55.2470 C.3    70  ILE70       0.0276
     69  CG1       27.4840   11.2960   56.6220 C.3    70  ILE70       0.0022
     70  CG2       29.5350   10.6980   55.2650 C.3    70  ILE70       0.0022
     71  CD1       25.9650   11.2000   56.8020 C.3    70  ILE70       0.0001
     72  N         30.1340   14.7560   57.1920 N.3    72  VAL72      -0.1245
     73  CA        30.5080   14.7230   58.5970 C.3    72  VAL72       0.1561
     74  C         31.1320   16.0360   59.0030 C.2    72  VAL72       0.2260
     75  O         32.1980   16.3990   58.4900 O.2    72  VAL72      -0.2867
     76  CB        31.5350   13.6240   58.9400 C.3    72  VAL72       0.0252
     77  CG1       31.7630   13.6110   60.4690 C.3    72  VAL72       0.0019
     78  CG2       31.1010   12.2570   58.4010 C.3    72  VAL72       0.0019
     79  N         34.6600   15.7930   59.7030 N.3    75  GLY75      -0.1210
     80  CA        35.1670   14.5910   59.0490 C.3    75  GLY75       0.1940
     81  C         36.2820   14.9690   58.0660 C.2    75  GLY75       0.2454
     82  O         36.0540   15.8130   57.1850 O.2    75  GLY75      -0.2732
     83  N         37.4790   14.3860   58.2350 N.am   76  PRO76      -0.2717
     84  CA        38.6430   14.7340   57.4180 C.3    76  PRO76       0.1535
     85  C         38.3370   14.8260   55.9390 C.2    76  PRO76       0.2598
     86  O         38.6910   15.8350   55.3320 O.2    76  PRO76      -0.2715
     87  CB        39.6440   13.6070   57.7210 C.3    76  PRO76       0.0310
     88  CG        39.3220   13.2530   59.1380 C.3    76  PRO76       0.0237
     89  CD        37.8190   13.4010   59.2800 C.3    76  PRO76       0.0939
     90  N         37.6810   13.8300   55.3570 N.am   77  LEU77      -0.1964
     91  CA        37.3280   13.9450   53.9360 C.3    77  LEU77       0.1728
     92  C         36.0890   14.8360   53.6520 C.2    77  LEU77       0.2616
     93  O         36.1670   15.7870   52.8420 O.2    77  LEU77      -0.2715
     94  CB        37.1840   12.5740   53.2610 C.3    77  LEU77       0.0311
     95  CG        36.7280   12.6570   51.8000 C.3    77  LEU77       0.0022
     96  CD1       37.8300   13.2740   50.8950 C.3    77  LEU77       0.0001
     97  CD2       36.2610   11.3110   51.2500 C.3    77  LEU77       0.0001
     98  N         34.9610   14.5220   54.2850 N.am   78  THR78      -0.1951
     99  CA        33.6830   15.0920   53.8490 C.3    78  THR78       0.1897
    100  C         33.4570   16.5260   54.3390 C.2    78  THR78       0.2313
    101  O         32.6370   17.2610   53.7590 O.2    78  THR78      -0.2863
    102  CB        32.4830   14.1770   54.2040 C.3    78  THR78       0.1794
    103  OG1       32.4440   13.9090   55.6120 O.3    78  THR78      -0.2208
    104  CG2       32.7020   12.7990   53.5580 C.3    78  THR78       0.0378
    105  N         20.6400    4.4430   55.5370 N.3   117  GLY117     -0.1210
    106  CA        21.5310    5.5900   55.4010 C.3   117  GLY117      0.1956
    107  C         22.1700    5.5930   54.0200 C.2   117  GLY117      0.2612
    108  O         21.4900    5.2600   53.0240 O.2   117  GLY117     -0.2717
    109  N         23.4710    5.9210   53.9590 N.am  118  THR118     -0.1952
    110  CA        24.2350    5.9320   52.6890 C.3   118  THR118      0.1897
    111  C         24.5360    4.5310   52.2010 C.2   118  THR118      0.2313
    112  O         25.1530    4.3710   51.1530 O.2   118  THR118     -0.2863
    113  CB        25.5730    6.6700   52.8150 C.3   118  THR118      0.1794
    114  OG1       26.3440    6.0750   53.8570 O.3   118  THR118     -0.2208
    115  CG2       25.3790    8.1310   53.2720 C.3   118  THR118      0.0378
    116  N         23.8360    3.3170   48.6430 N.3   121  ALA121     -0.1245
    117  CA        24.7890    3.6370   47.5430 C.3   121  ALA121      0.1562
    118  C         25.0860    2.4710   46.5660 C.2   121  ALA121      0.2260
    119  O         24.8510    2.6350   45.3870 O.2   121  ALA121     -0.2867
    120  CB        26.0840    4.2220   48.1000 C.3   121  ALA121      0.0290
    121  N         28.1200   -5.9700   53.6210 N.3   252  GLU252     -0.1231
    122  CA        29.2390   -5.0330   53.6170 C.3   252  GLU252      0.1699
    123  C         28.9020   -3.8710   54.5380 C.2   252  GLU252      0.2592
    124  O         27.7290   -3.5040   54.6480 O.2   252  GLU252     -0.2718
    125  CB        29.4680   -4.5260   52.1980 C.3   252  GLU252      0.0402
    126  CG        30.7810   -3.8030   51.9510 C.3   252  GLU252      0.1161
    127  CD        31.0120   -3.5100   50.4760 C.2   252  GLU252      0.3649
    128  OE1       30.5280   -2.4570   50.0070 O.co2 252  GLU252     -0.2457
    129  OE2       31.6900   -4.3240   49.7840 O.co2 252  GLU252     -0.2457
    130  N         29.9070   -3.2890   55.1890 N.am  253  LYS253     -0.1966
    131  CA        29.7020   -2.0900   56.0330 C.3   253  LYS253      0.1728
    132  C         29.5110   -0.7820   55.2470 C.2   253  LYS253      0.2616
    133  O         30.3400   -0.4310   54.3850 O.2   253  LYS253     -0.2715
    134  CB        30.8530   -1.9180   57.0220 C.3   253  LYS253      0.0311
    135  CG        30.8630   -3.0170   58.0740 C.3   253  LYS253      0.0038
    136  CD        31.9070   -2.7640   59.1280 C.3   253  LYS253      0.0206
    137  CE        33.1800   -3.4890   58.7870 C.3   253  LYS253      0.1093
    138  NZ        33.0370   -4.9710   58.9170 N.3   253  LYS253     -0.1314
    139  N         28.4250   -0.0590   55.5470 N.am  254  ALA254     -0.1963
    140  CA        28.2170    1.2310   54.9200 C.3   254  ALA254      0.1728
    141  C         29.2800    2.2300   55.3940 C.2   254  ALA254      0.2616
    142  O         29.5510    3.2490   54.7230 O.2   254  ALA254     -0.2715
    143  CB        26.8240    1.7450   55.1900 C.3   254  ALA254      0.0334
    144  N         29.8970    1.9010   56.5270 N.am  255  PHE255     -0.1960
    145  CA        30.9700    2.6940   57.1480 C.3   255  PHE255      0.1771
    146  C         31.4790    1.9640   58.3780 C.2   255  PHE255      0.2619
    147  O         30.8320    1.0380   58.8710 O.2   255  PHE255     -0.2715
    148  CB        30.4670    4.1040   57.5470 C.3   255  PHE255      0.0574
    149  CG        29.3490    4.0860   58.5750 C.ar  255  PHE255     -0.0200
    150  CD1       29.6380    4.1330   59.9250 C.ar  255  PHE255     -0.0042
    151  CD2       28.0140    3.9800   58.1770 C.ar  255  PHE255     -0.0042
    152  CE1       28.6090    4.0800   60.8750 C.ar  255  PHE255     -0.0003
    153  CE2       26.9840    3.9380   59.1180 C.ar  255  PHE255     -0.0003
    154  CZ        27.2840    3.9960   60.4680 C.ar  255  PHE255     -0.0000
    155  N         32.6290    2.4080   58.8830 N.am  256  VAL256     -0.1963
    156  CA        33.2280    1.8570   60.0880 C.3   256  VAL256      0.1727
    157  C         32.8650    2.7330   61.3080 C.2   256  VAL256      0.2617
    158  O         32.8940    3.9640   61.2500 O.2   256  VAL256     -0.2715
    159  CB        34.7630    1.7320   59.9350 C.3   256  VAL256      0.0290
    160  CG1       35.3610    1.0730   61.1520 C.3   256  VAL256      0.0023
    161  CG2       35.1330    0.9330   58.7070 C.3   256  VAL256      0.0023
    162  N         32.5030    2.0950   62.4130 N.am  257  GLY257     -0.1940
    163  CA        32.1370    2.8190   63.6230 C.3   257  GLY257      0.2014
    164  C         30.6390    2.9570   63.8930 C.2   257  GLY257      0.2639
    165  O         29.7950    2.1950   63.3730 O.2   257  GLY257     -0.2714
    166  N         30.3110    3.9610   64.7040 N.am  258  GLU258     -0.1963
    167  CA        28.9860    4.0850   65.3090 C.3   258  GLU258      0.1733
    168  C         27.9780    4.7560   64.3840 C.2   258  GLU258      0.2617
    169  O         26.8440    4.2880   64.2540 O.2   258  GLU258     -0.2715
    170  CB        29.0820    4.8270   66.6560 C.3   258  GLU258      0.0429
    171  CG        30.3370    4.5040   67.4880 C.3   258  GLU258      0.1163
    172  CD        30.3360    3.0760   68.0370 C.2   258  GLU258      0.3649
    173  OE1       30.6300    2.1330   67.2580 O.co2 258  GLU258     -0.2457
    174  OE2       30.0410    2.8950   69.2460 O.co2 258  GLU258     -0.2457
    175  N         28.3950    5.8550   63.7510 N.am  259  GLY259     -0.1940
    176  CA        27.5800    6.5140   62.7450 C.3   259  GLY259      0.2014
    177  C         26.9530    7.8280   63.1570 C.2   259  GLY259      0.2638
    178  O         26.6110    8.0370   64.3280 O.2   259  GLY259     -0.2714
    179  N         26.8010    8.7170   62.1750 N.am  260  ILE260     -0.1977
    180  CA        26.1280   10.0050   62.3650 C.3   260  ILE260      0.1596
    181  C         24.6120    9.8230   62.4430 C.2   260  ILE260      0.2287
    182  O         24.0020   10.3830   63.3730 O.2   260  ILE260     -0.2864
    183  CB        26.5060   10.9750   61.2290 C.3   260  ILE260      0.0276
    184  CG1       27.8830   11.5730   61.5080 C.3   260  ILE260      0.0022
    185  CG2       25.4280   12.0650   61.0190 C.3   260  ILE260      0.0022
    186  CD1       28.3130   12.5390   60.4750 C.3   260  ILE260      0.0001
@<TRIPOS>BOND
     1     4     3    2
     2   119   118    2
     3     1     2    1
     4     3     2    1
     5    42    43    2
     6    42    41    1
     7     2     5    1
     8    46    47    1
     9    31    30    2
    10   118   117    1
    11    41    44    1
    12    41    40    1
    13    44    45    1
    14    47    50    1
    15    47    48    1
    16    50    51    1
    17     5     6    1
    18    30    40   am
    19    30    29    1
    20   117   120    1
    21   117   116    1
    22    32    29    1
    23    32    33    1
    24    52    51   ar
    25    52    54   ar
    26     6     8   ar
    27     6     7   ar
    28    51    53   ar
    29    29    28    1
    30     8    10   ar
    31    48    49    2
    32    48    58   am
    33     7     9   ar
    34    33    35   ar
    35    33    34   ar
    36    35    37   ar
    37    28    25   am
    38    54    56   ar
    39    58    59    1
    40    53    55   ar
    41    10    11   ar
    42     9    11   ar
    43    34    36   ar
    44    37    38   ar
    45    15    14    2
    46   129   127   ar
    47    62    59    1
    48    62    63    1
    49   128   127   ar
    50    56    55   ar
    51    56    57    1
    52    25    24    1
    53    25    26    2
    54    59    60    1
    55   127   126    1
    56    36    38   ar
    57    38    39    1
    58    24    27    1
    59    24    23    1
    60    96    95    1
    61    14    23   am
    62    14    13    1
    63   112   111    2
    64    97    95    1
    65    12    13    1
    66    61    60    2
    67    60    64   am
    68    95    94    1
    69   126   125    1
    70    13    16    1
    71   125   122    1
    72   111   110    1
    73    16    17    1
    74   110   113    1
    75   110   109    1
    76    64    65    1
    77   113   115    1
    78   113   114    1
    79    93    92    2
    80   108   107    2
    81    94    91    1
    82    67    66    2
    83   104   102    1
    84    17    18    1
    85   122   121    1
    86   122   123    1
    87    92    91    1
    88    92    98   am
    89   101   100    2
    90    99   102    1
    91    99    98    1
    92    99   100    1
    93    91    90    1
    94   109   107   am
    95   107   106    1
    96    65    66    1
    97    65    68    1
    98   102   103    1
    99   133   132    2
   100   123   124    2
   101   123   130   am
   102   142   141    2
   103    18    19    1
   104   140   143    1
   105   140   141    1
   106   140   139    1
   107   130   131    1
   108    68    70    1
   109    68    69    1
   110   132   139   am
   111   132   131    1
   112    86    85    2
   113    90    85   am
   114   141   144   am
   115   106   105    1
   116    21    20    1
   117    85    84    1
   118    19    20    2
   119   131   134    1
   120    20    22    1
   121   144   145    1
   122    69    71    1
   123   134   135    1
   124   145   148    1
   125   145   146    1
   126    82    81    2
   127    72    73    1
   128    84    87    1
   129    84    83    1
   130   148   149    1
   131    87    88    1
   132    81    83   am
   133    81    80    1
   134   135   136    1
   135   151   149   ar
   136   151   153   ar
   137    83    89    1
   138   146   147    2
   139   146   155   am
   140    78    76    1
   141    75    74    2
   142   149   150   ar
   143    73    76    1
   144    73    74    1
   145   161   159    1
   146   137   138    1
   147   137   136    1
   148   155   156    1
   149    76    77    1
   150    80    79    1
   151   153   154   ar
   152    88    89    1
   153   150   152   ar
   154   159   156    1
   155   159   160    1
   156   156   157    1
   157   154   152   ar
   158   186   184    1
   159   185   183    1
   160   183   184    1
   161   183   180    1
   162   158   157    2
   163   157   162   am
   164   179   180    1
   165   179   177   am
   166   180   181    1
   167   162   163    1
   168   181   182    2
   169   176   177    1
   170   176   175    1
   171   177   178    2
   172   165   164    2
   173   163   164    1
   174   175   168   am
   175   164   166   am
   176   169   168    2
   177   168   167    1
   178   166   167    1
   179   167   170    1
   180   170   171    1
   181   173   172   ar
   182   171   172    1
   183   172   174   ar
