@<TRIPOS>MOLECULE
tmp/2bgmA01.pdb
 116 112 0 0 0
SMALL
GASTEIGER

@<TRIPOS>ATOM
      1  N          2.8840    8.9340   24.9490 N.3    93  LEU93      -0.1231
      2  CA         2.1450    9.3750   26.1090 C.3    93  LEU93       0.1693
      3  C          2.0420    8.2060   27.0710 C.2    93  LEU93       0.2592
      4  O          2.4750    7.0880   26.7580 O.2    93  LEU93      -0.2718
      5  CB         0.7560    9.8260   25.6920 C.3    93  LEU93       0.0284
      6  CG         0.6260   11.0010   24.7620 C.3    93  LEU93       0.0019
      7  CD1       -0.8330   11.2510   24.5710 C.3    93  LEU93       0.0001
      8  CD2        1.2180   12.2590   25.3290 C.3    93  LEU93       0.0001
      9  N          1.4940    8.5400   28.2390 N.am   94  SER94      -0.1952
     10  CA         1.1870    7.6230   29.3150 C.3    94  SER94       0.1924
     11  C         -0.1830    7.0650   29.0180 C.2    94  SER94       0.2314
     12  O         -1.0670    7.7460   28.4600 O.2    94  SER94      -0.2863
     13  CB         1.1250    8.3550   30.6420 C.3    94  SER94       0.2116
     14  OG         0.6640    7.6700   31.8030 O.3    94  SER94      -0.2180
     15  N         -1.6790    5.2010   31.8150 N.3    96  THR96      -0.1218
     16  CA        -2.2970    5.1420   33.1470 C.3    96  THR96       0.1862
     17  C         -2.8350    6.5530   33.4750 C.2    96  THR96       0.2287
     18  O         -2.4480    7.5310   32.7850 O.2    96  THR96      -0.2866
     19  CB        -1.2950    4.7270   34.2360 C.3    96  THR96       0.1770
     20  OG1       -0.1890    5.5890   34.0880 O.3    96  THR96      -0.2211
     21  CG2       -0.9110    3.2570   34.1770 C.3    96  THR96       0.0375
     22  N          8.8490   19.3260   24.2880 N.3   143  SER143     -0.1202
     23  CA         7.4570   19.7030   24.3520 C.3   143  SER143      0.2020
     24  C          7.4480   20.9640   25.2110 C.2   143  SER143      0.2619
     25  O          8.4890   21.3450   25.7470 O.2   143  SER143     -0.2717
     26  CB         6.6930   18.5740   25.0220 C.3   143  SER143      0.2103
     27  OG         5.3300   18.8380   25.3330 O.3   143  SER143     -0.2182
     28  N          6.3270   21.6860   25.3720 N.am  144  ILE144     -0.1965
     29  CA         6.2590   22.7950   26.3360 C.3   144  ILE144      0.1727
     30  C          6.2610   22.1490   27.7340 C.2   144  ILE144      0.2616
     31  O          6.5060   22.8050   28.7530 O.2   144  ILE144     -0.2715
     32  CB         4.9740   23.6680   26.0990 C.3   144  ILE144      0.0290
     33  CG1        3.6900   22.8770   26.0870 C.3   144  ILE144      0.0022
     34  CG2        5.1610   24.3870   24.7430 C.3   144  ILE144      0.0023
     35  CD1        2.3760   23.7560   25.9720 C.3   144  ILE144      0.0001
     36  N          6.0270   20.8140   27.8330 N.am  145  SER145     -0.1950
     37  CA         6.1590   20.0460   29.0660 C.3   145  SER145      0.1924
     38  C          7.6300   19.8060   29.4130 C.2   145  SER145      0.2314
     39  O          7.9260   19.1290   30.3830 O.2   145  SER145     -0.2863
     40  CB         5.4500   18.6970   28.9540 C.3   145  SER145      0.2116
     41  OG         4.0670   18.8310   29.2320 O.3   145  SER145     -0.2180
     42  N         -3.6160   16.9600   33.7200 N.3   152  GLY152     -0.1210
     43  CA        -3.9340   15.9980   32.7170 C.3   152  GLY152      0.1956
     44  C         -2.6840   15.5670   31.9430 C.2   152  GLY152      0.2612
     45  O         -2.8270   14.6480   31.1360 O.2   152  GLY152     -0.2717
     46  N         -1.4650   16.1330   32.0750 N.am  153  VAL153     -0.1965
     47  CA        -0.3430   15.5980   31.3000 C.3   153  VAL153      0.1727
     48  C          0.3430   14.8430   32.4100 C.2   153  VAL153      0.2616
     49  O          0.5190   15.3790   33.4980 O.2   153  VAL153     -0.2715
     50  CB         0.6210   16.7420   30.5430 C.3   153  VAL153      0.0290
     51  CG1       -0.2820   17.8800   30.1510 C.3   153  VAL153      0.0023
     52  CG2        1.7660   17.3690   31.3200 C.3   153  VAL153      0.0023
     53  N          0.5860   13.5390   32.1880 N.am  154  SER154     -0.1950
     54  CA         1.0830   12.6990   33.2420 C.3   154  SER154      0.1924
     55  C          2.4570   13.1550   33.7500 C.2   154  SER154      0.2314
     56  O          3.2420   13.8240   33.0780 O.2   154  SER154     -0.2863
     57  CB         1.1470   11.3120   32.7450 C.3   154  SER154      0.2116
     58  OG         2.3200   11.1590   31.9420 O.3   154  SER154     -0.2180
     59  N          5.4370   11.9100   31.5170 N.3   157  TYR157     -0.1241
     60  CA         5.6350   12.7070   30.2950 C.3   157  TYR157      0.1605
     61  C          6.3430   14.0810   30.5600 C.2   157  TYR157      0.2264
     62  O          7.2550   14.4770   29.8370 O.2   157  TYR157     -0.2867
     63  CB         4.2560   12.9190   29.6180 C.3   157  TYR157      0.0534
     64  CG         4.3750   13.5500   28.2240 C.ar  157  TYR157     -0.0201
     65  CD1        4.7130   12.7050   27.1690 C.ar  157  TYR157     -0.0009
     66  CD2        4.2120   14.9340   27.9950 C.ar  157  TYR157     -0.0009
     67  CE1        4.9000   13.1970   25.8910 C.ar  157  TYR157      0.0417
     68  CE2        4.4070   15.4470   26.7130 C.ar  157  TYR157      0.0417
     69  CZ         4.7440   14.5660   25.6750 C.ar  157  TYR157      0.1957
     70  OH         4.8950   15.0020   24.3880 O.3   157  TYR157     -0.2866
     71  N          6.8130   22.0180   20.8890 N.3   187  PRO187     -0.2102
     72  CA         5.4940   22.4420   20.3870 C.3   187  PRO187      0.1504
     73  C          4.3230   22.4520   21.4040 C.2   187  PRO187      0.2576
     74  O          4.3740   21.8300   22.4640 O.2   187  PRO187     -0.2718
     75  CB         5.2100   21.5040   19.2100 C.3   187  PRO187      0.0282
     76  CG         6.4110   20.5490   19.1110 C.3   187  PRO187      0.0208
     77  CD         7.2380   20.7120   20.3920 C.3   187  PRO187      0.0893
     78  N          3.2460   23.2040   21.1510 N.am  188  TYR188     -0.1963
     79  CA         2.0280   23.1170   21.9400 C.3   188  TYR188      0.1771
     80  C          1.2040   22.0320   21.1940 C.2   188  TYR188      0.2619
     81  O          1.8070   21.2350   20.4720 O.2   188  TYR188     -0.2715
     82  CB         1.4810   24.5510   21.9100 C.3   188  TYR188      0.0574
     83  CG         0.0470   24.8890   22.3260 C.ar  188  TYR188     -0.0198
     84  CD1       -0.3750   24.7680   23.6590 C.ar  188  TYR188     -0.0009
     85  CD2       -0.8590   25.3220   21.3410 C.ar  188  TYR188     -0.0009
     86  CE1       -1.6980   25.0580   23.9880 C.ar  188  TYR188      0.0417
     87  CE2       -2.1740   25.6130   21.6810 C.ar  188  TYR188      0.0417
     88  CZ        -2.5750   25.4790   22.9880 C.ar  188  TYR188      0.1957
     89  OH        -3.8820   25.7600   23.3080 O.3   188  TYR188     -0.2866
     90  N         -0.1410   21.9080   21.2720 N.am  189  ILE189     -0.1977
     91  CA        -0.9390   20.9110   20.5490 C.3   189  ILE189      0.1596
     92  C         -0.9240   21.1840   19.0590 C.2   189  ILE189      0.2287
     93  O         -1.2960   22.2450   18.5490 O.2   189  ILE189     -0.2864
     94  CB        -2.4620   20.8580   20.9790 C.3   189  ILE189      0.0276
     95  CG1       -2.5260   20.6640   22.4710 C.3   189  ILE189      0.0022
     96  CG2       -3.2350   19.6620   20.3750 C.3   189  ILE189      0.0022
     97  CD1       -3.1300   21.9840   22.9570 C.3   189  ILE189      0.0001
     98  N         -9.6660   18.8730   18.2910 N.3   206  VAL206     -0.1245
     99  CA        -8.7020   19.2470   19.3110 C.3   206  VAL206      0.1561
    100  C         -8.0810   20.6000   18.9540 C.2   206  VAL206      0.2260
    101  O         -7.8150   21.3870   19.8700 O.2   206  VAL206     -0.2867
    102  CB        -7.6030   18.1380   19.5010 C.3   206  VAL206      0.0252
    103  CG1       -6.6270   18.0220   18.3610 C.3   206  VAL206      0.0019
    104  CG2       -6.8970   18.4830   20.8110 C.3   206  VAL206      0.0019
    105  N          1.6760   30.6900   24.4350 N.3   252  TYR252     -0.1241
    106  CA         0.7820   30.0970   25.4450 C.3   252  TYR252      0.1605
    107  C          1.3990   30.0510   26.8550 C.2   252  TYR252      0.2264
    108  O          0.7790   30.4640   27.8570 O.2   252  TYR252     -0.2867
    109  CB         0.3870   28.6650   24.9460 C.3   252  TYR252      0.0534
    110  CG        -0.4350   27.8010   25.8990 C.ar  252  TYR252     -0.0201
    111  CD1       -1.8210   27.9930   25.9210 C.ar  252  TYR252     -0.0009
    112  CD2        0.1790   26.8850   26.7870 C.ar  252  TYR252     -0.0009
    113  CE1       -2.6210   27.3040   26.8370 C.ar  252  TYR252      0.0417
    114  CE2       -0.6170   26.1950   27.7000 C.ar  252  TYR252      0.0417
    115  CZ        -2.0080   26.4150   27.7120 C.ar  252  TYR252      0.1957
    116  OH        -2.8220   25.7540   28.5970 O.3   252  TYR252     -0.2866
@<TRIPOS>BOND
     1    98    99    1
     2   103   102    1
     3    93    92    2
     4   100    99    1
     5   100   101    2
     6    92    91    1
     7    76    75    1
     8    76    77    1
     9    75    72    1
    10    99   102    1
    11   102   104    1
    12    96    94    1
    13    72    71    1
    14    72    73    1
    15    77    71    1
    16    81    80    2
    17    91    94    1
    18    91    90    1
    19    94    95    1
    20    78    73   am
    21    78    79    1
    22    80    90   am
    23    80    79    1
    24    85    87   ar
    25    85    83   ar
    26    73    74    2
    27    87    88   ar
    28    82    79    1
    29    82    83    1
    30    83    84   ar
    31    95    97    1
    32    88    89    1
    33    88    86   ar
    34    84    86   ar
    35    22    23    1
    36    23    26    1
    37    23    24    1
    38    70    69    1
    39   105   106    1
    40     7     6    1
    41    34    32    1
    42     6     8    1
    43     6     5    1
    44   109   106    1
    45   109   110    1
    46     1     2    1
    47    26    27    1
    48    24    28   am
    49    24    25    2
    50    28    29    1
    51   106   107    1
    52    69    67   ar
    53    69    68   ar
    54     5     2    1
    55    67    65   ar
    56   110   111   ar
    57   110   112   ar
    58   111   113   ar
    59    35    33    1
    60    33    32    1
    61    32    29    1
    62     2     3    1
    63    29    30    1
    64    68    66   ar
    65     4     3    2
    66   112   114   ar
    67   113   115   ar
    68   107   108    2
    69     3     9   am
    70    65    64   ar
    71   114   115   ar
    72   115   116    1
    73    30    36   am
    74    30    31    2
    75    36    37    1
    76    66    64   ar
    77    64    63    1
    78     9    10    1
    79    12    11    2
    80    40    37    1
    81    40    41    1
    82    11    10    1
    83    37    38    1
    84    10    13    1
    85    38    39    2
    86    63    60    1
    87    62    61    2
    88    51    50    1
    89    60    61    1
    90    60    59    1
    91    50    47    1
    92    50    52    1
    93    13    14    1
    94    45    44    2
    95    47    46    1
    96    47    48    1
    97    15    16    1
    98    58    57    1
    99    44    46   am
   100    44    43    1
   101    53    48   am
   102    53    54    1
   103    48    49    2
   104    43    42    1
   105    57    54    1
   106    18    17    2
   107    56    55    2
   108    16    17    1
   109    16    19    1
   110    54    55    1
   111    20    19    1
   112    21    19    1
