@<TRIPOS>MOLECULE
tmp/2bgnD00.pdb
 226 223 0 0 0
SMALL
GASTEIGER

@<TRIPOS>ATOM
      1  N        -12.5100   -1.6480  205.6410 N.3    87  ARG87      -0.1231
      2  CA       -13.0610   -1.1900  204.3730 C.3    87  ARG87       0.1694
      3  C        -13.8990   -2.2520  203.6520 C.2    87  ARG87       0.2592
      4  O        -15.0410   -1.9800  203.3040 O.2    87  ARG87      -0.2718
      5  CB       -11.9650   -0.6480  203.4510 C.3    87  ARG87       0.0321
      6  CG       -12.4780   -0.3900  202.0320 C.3    87  ARG87       0.0489
      7  CD       -12.3600    1.0290  201.5440 C.3    87  ARG87       0.2205
      8  NE       -11.0820    1.6270  201.8920 N.pl3  87  ARG87      -0.0865
      9  CZ       -10.8520    2.9310  201.8700 C.cat  87  ARG87       0.5346
     10  NH1      -11.8070    3.7990  201.5430 N.pl3  87  ARG87       0.1354
     11  NH2       -9.6530    3.3890  202.1920 N.pl3  87  ARG87       0.1354
     12  N        -13.3290   -3.4350  203.4340 N.am   88  HIS88      -0.1976
     13  CA       -14.0030   -4.5220  202.7070 C.3    88  HIS88       0.1656
     14  C        -14.2470   -5.7820  203.5350 C.2    88  HIS88       0.2291
     15  O        -15.0060   -6.6590  203.1220 O.2    88  HIS88      -0.2864
     16  CB       -13.2110   -4.9910  201.4740 C.3    88  HIS88       0.0771
     17  CG       -12.5310   -3.9060  200.6980 C.ar   88  HIS88       0.0820
     18  ND1      -13.1810   -3.1360  199.7600 N.ar   88  HIS88      -0.2267
     19  CD2      -11.2410   -3.5030  200.6740 C.ar   88  HIS88       0.1154
     20  CE1      -12.3330   -2.2790  199.2210 C.ar   88  HIS88       0.1986
     21  NE2      -11.1450   -2.4830  199.7560 N.ar   88  HIS88      -0.2212
     22  N         -6.2770   -3.1760  202.6390 N.3   167  GLU167     -0.1231
     23  CA        -6.4440   -1.7660  202.3310 C.3   167  GLU167      0.1699
     24  C         -5.5870   -1.3190  201.1640 C.2   167  GLU167      0.2592
     25  O         -6.0870   -0.7010  200.2320 O.2   167  GLU167     -0.2718
     26  CB        -6.0750   -0.9370  203.5580 C.3   167  GLU167      0.0402
     27  CG        -5.9310    0.5450  203.2870 C.3   167  GLU167      0.1161
     28  CD        -7.2650    1.2420  203.1130 C.2   167  GLU167      0.3649
     29  OE1       -8.3270    0.5740  203.1880 O.co2 167  GLU167     -0.2457
     30  OE2       -7.2300    2.4810  202.9130 O.co2 167  GLU167     -0.2457
     31  N         -4.3000   -1.6470  201.2300 N.am  168  GLU168     -0.1979
     32  CA        -3.2960   -1.0940  200.3170 C.3   168  GLU168      0.1602
     33  C         -2.8780   -1.9290  199.0970 C.2   168  GLU168      0.2287
     34  O         -2.3420   -1.3510  198.1440 O.2   168  GLU168     -0.2864
     35  CB        -2.0190   -0.6820  201.0840 C.3   168  GLU168      0.0415
     36  CG        -2.2090    0.3010  202.2330 C.3   168  GLU168      0.1163
     37  CD        -2.7790    1.6520  201.8100 C.2   168  GLU168      0.3649
     38  OE1       -3.1450    1.8100  200.6240 O.co2 168  GLU168     -0.2457
     39  OE2       -2.8570    2.5760  202.6620 O.co2 168  GLU168     -0.2457
     40  N         -7.1770   -4.6580  197.8040 N.3   171  SER171     -0.1217
     41  CA        -8.4790   -3.9720  197.8340 C.3   171  SER171      0.1889
     42  C         -9.6520   -4.9120  198.0890 C.2   171  SER171      0.2288
     43  O        -10.7850   -4.6440  197.6910 O.2   171  SER171     -0.2866
     44  CB        -8.7090   -3.1780  196.5490 C.3   171  SER171      0.2089
     45  OG        -8.0730   -1.9220  196.6540 O.3   171  SER171     -0.2183
     46  N         -0.9160    2.1270  191.1950 N.3   319  PHE319     -0.1241
     47  CA        -0.8380    1.8100  192.6390 C.3   319  PHE319      0.1605
     48  C         -0.0970    0.4980  192.9440 C.2   319  PHE319      0.2264
     49  O          0.6030    0.3710  193.9540 O.2   319  PHE319     -0.2867
     50  CB        -2.2390    1.7780  193.2450 C.3   319  PHE319      0.0534
     51  CG        -2.9230    3.1050  193.1900 C.ar  319  PHE319     -0.0203
     52  CD1       -2.6130    4.0950  194.1230 C.ar  319  PHE319     -0.0042
     53  CD2       -3.8340    3.3830  192.1780 C.ar  319  PHE319     -0.0042
     54  CE1       -3.2230    5.3220  194.0640 C.ar  319  PHE319     -0.0003
     55  CE2       -4.4540    4.6200  192.1160 C.ar  319  PHE319     -0.0003
     56  CZ        -4.1500    5.5920  193.0580 C.ar  319  PHE319     -0.0000
     57  N         -8.0150   16.7110  197.1300 N.3   509  TYR509     -0.1241
     58  CA        -7.5000   15.4020  197.5470 C.3   509  TYR509      0.1605
     59  C         -5.9840   15.3140  197.2800 C.2   509  TYR509      0.2264
     60  O         -5.1860   15.2690  198.2240 O.2   509  TYR509     -0.2867
     61  CB        -8.2370   14.2540  196.8580 C.3   509  TYR509      0.0534
     62  CG        -7.7470   12.9090  197.3410 C.ar  509  TYR509     -0.0201
     63  CD1       -7.0250   12.0670  196.5040 C.ar  509  TYR509     -0.0009
     64  CD2       -7.9750   12.4930  198.6530 C.ar  509  TYR509     -0.0009
     65  CE1       -6.5820   10.8410  196.9450 C.ar  509  TYR509      0.0417
     66  CE2       -7.5190   11.2740  199.1080 C.ar  509  TYR509      0.0417
     67  CZ        -6.8280   10.4610  198.2480 C.ar  509  TYR509      0.1957
     68  OH        -6.3720    9.2500  198.6940 O.3   509  TYR509     -0.2866
     69  N         -4.2140   10.5520  191.7460 N.3   514  SER514     -0.1217
     70  CA        -5.5980   10.9200  191.9270 C.3   514  SER514      0.1889
     71  C         -6.0000   11.8140  190.7710 C.2   514  SER514      0.2288
     72  O         -5.1420   12.2710  189.9990 O.2   514  SER514     -0.2866
     73  CB        -5.7940   11.6760  193.2370 C.3   514  SER514      0.2089
     74  OG        -5.1900   12.9630  193.1900 O.3   514  SER514     -0.2183
     75  N         -9.2450   14.6920  190.6120 N.3   516  LYS516     -0.1245
     76  CA       -10.4660   15.3640  191.1140 C.3   516  LYS516      0.1561
     77  C        -11.2150   16.1530  190.0370 C.2   516  LYS516      0.2260
     78  O        -12.3310   16.5980  190.2760 O.2   516  LYS516     -0.2867
     79  CB       -10.1810   16.3250  192.2980 C.3   516  LYS516      0.0271
     80  CG       -10.2470   15.7670  193.7500 C.3   516  LYS516      0.0035
     81  CD       -11.5790   15.0940  194.1540 C.3   516  LYS516      0.0206
     82  CE       -12.6890   16.0680  194.4910 C.3   516  LYS516      0.1093
     83  NZ       -12.4200   16.6720  195.8260 N.3   516  LYS516     -0.1314
     84  N        -10.5790   22.7030  201.6580 N.3   589  TRP589     -0.1241
     85  CA       -10.9240   21.5750  202.5100 C.3   589  TRP589      0.1605
     86  C        -10.7320   20.2270  201.8420 C.2   589  TRP589      0.2264
     87  O        -10.9100   20.0750  200.6360 O.2   589  TRP589     -0.2867
     88  CB       -12.3650   21.6700  203.0140 C.3   589  TRP589      0.0550
     89  CG       -13.3470   20.9230  202.1740 C.ar  589  TRP589      0.0003
     90  CD1      -13.8680   21.3170  200.9780 C.ar  589  TRP589      0.0946
     91  CD2      -13.9170   19.6400  202.4560 C.ar  589  TRP589      0.0152
     92  NE1      -14.7350   20.3640  200.4980 N.ar  589  TRP589     -0.2442
     93  CE2      -14.7860   19.3230  201.3850 C.ar  589  TRP589      0.0810
     94  CE3      -13.7870   18.7280  203.5110 C.ar  589  TRP589      0.0012
     95  CZ2      -15.5160   18.1440  201.3290 C.ar  589  TRP589      0.0191
     96  CZ3      -14.5240   17.5470  203.4610 C.ar  589  TRP589      0.0001
     97  CH2      -15.3790   17.2670  202.3720 C.ar  589  TRP589      0.0015
     98  N        -10.1900   15.5820  202.8150 N.3   591  TRP591     -0.1227
     99  CA       -10.3340   14.4320  203.6870 C.3   591  TRP591      0.1737
    100  C         -9.1500   13.5020  203.3820 C.2   591  TRP591      0.2596
    101  O         -8.7610   13.3540  202.2150 O.2   591  TRP591     -0.2718
    102  CB       -11.6680   13.7630  203.3320 C.3   591  TRP591      0.0564
    103  CG       -12.2830   12.8380  204.3450 C.ar  591  TRP591      0.0003
    104  CD1      -11.7290   11.7070  204.8900 C.ar  591  TRP591      0.0946
    105  CD2      -13.6150   12.9170  204.8760 C.ar  591  TRP591      0.0152
    106  NE1      -12.6200   11.1080  205.7510 N.ar  591  TRP591     -0.2442
    107  CE2      -13.7860   11.8300  205.7620 C.ar  591  TRP591      0.0810
    108  CE3      -14.6750   13.8100  204.7100 C.ar  591  TRP591      0.0012
    109  CZ2      -14.9690   11.6180  206.4640 C.ar  591  TRP591      0.0191
    110  CZ3      -15.8410   13.5950  205.4230 C.ar  591  TRP591      0.0001
    111  CH2      -15.9800   12.5110  206.2830 C.ar  591  TRP591      0.0015
    112  N         -8.5880   12.8830  204.4170 N.am  592  SER592     -0.1938
    113  CA        -7.4190   12.0010  204.2690 C.3   592  SER592      0.2055
    114  C         -6.1720   12.7490  203.7660 C.2   592  SER592      0.2643
    115  O         -5.7140   13.7170  204.3830 O.2   592  SER592     -0.2714
    116  CB        -7.7240   10.8130  203.3390 C.3   592  SER592      0.2130
    117  OG        -8.7070    9.9610  203.8780 O.3   592  SER592     -0.2179
    118  N         -5.6250   12.2820  202.6440 N.am  593  TYR593     -0.1973
    119  CA        -4.5390   12.9720  201.9560 C.3   593  TYR593      0.1639
    120  C         -4.9730   14.4100  201.7850 C.2   593  TYR593      0.2290
    121  O         -4.1920   15.3330  202.0340 O.2   593  TYR593     -0.2864
    122  CB        -4.2650   12.3530  200.5730 C.3   593  TYR593      0.0560
    123  CG        -2.8740   12.6600  200.0840 C.ar  593  TYR593     -0.0198
    124  CD1       -2.5330   13.9370  199.6890 C.ar  593  TYR593     -0.0009
    125  CD2       -1.8830   11.6850  200.0610 C.ar  593  TYR593     -0.0009
    126  CE1       -1.2540   14.2530  199.2700 C.ar  593  TYR593      0.0417
    127  CE2       -0.5920   11.9870  199.6360 C.ar  593  TYR593      0.0417
    128  CZ        -0.2860   13.2840  199.2470 C.ar  593  TYR593      0.1957
    129  OH         0.9760   13.6440  198.8250 O.3   593  TYR593     -0.2866
    130  N         -3.7190   13.0580  207.4270 N.3   618  VAL618     -0.1245
    131  CA        -2.3760   12.5870  207.7500 C.3   618  VAL618      0.1561
    132  C         -1.6210   13.8150  208.2510 C.2   618  VAL618      0.2260
    133  O         -1.8240   14.9130  207.7510 O.2   618  VAL618     -0.2867
    134  CB        -1.6850   12.0480  206.4880 C.3   618  VAL618      0.0252
    135  CG1       -0.1690   11.9170  206.6700 C.3   618  VAL618      0.0019
    136  CG2       -2.3040   10.7230  206.1130 C.3   618  VAL618      0.0019
    137  N          4.1230   11.4110  207.7770 N.3   621  TRP621     -0.1241
    138  CA         4.1300   10.1050  207.0920 C.3   621  TRP621      0.1605
    139  C          4.5970    8.8990  207.8930 C.2   621  TRP621      0.2264
    140  O          4.1880    7.7690  207.6220 O.2   621  TRP621     -0.2867
    141  CB         4.9150   10.2110  205.7750 C.3   621  TRP621      0.0550
    142  CG         4.1370   11.0570  204.8550 C.ar  621  TRP621      0.0003
    143  CD1        4.4190   12.3380  204.4660 C.ar  621  TRP621      0.0946
    144  CD2        2.8660   10.7310  204.3040 C.ar  621  TRP621      0.0152
    145  NE1        3.4130   12.8050  203.6560 N.ar  621  TRP621     -0.2442
    146  CE2        2.4440   11.8340  203.5460 C.ar  621  TRP621      0.0810
    147  CE3        2.0430    9.6070  204.3610 C.ar  621  TRP621      0.0012
    148  CZ2        1.2280   11.8370  202.8410 C.ar  621  TRP621      0.0191
    149  CZ3        0.8440    9.6100  203.6630 C.ar  621  TRP621      0.0001
    150  CH2        0.4530   10.7150  202.9100 C.ar  621  TRP621      0.0015
    151  N          1.6260    6.9300  209.0560 N.3   624  TYR624     -0.1241
    152  CA         0.7650    6.2130  208.1310 C.3   624  TYR624      0.1605
    153  C          1.3630    4.8440  207.7990 C.2   624  TYR624      0.2264
    154  O          2.5350    4.5730  208.1000 O.2   624  TYR624     -0.2867
    155  CB         0.4560    7.0320  206.8770 C.3   624  TYR624      0.0534
    156  CG        -0.7730    6.4890  206.1870 C.ar  624  TYR624     -0.0201
    157  CD1       -2.0060    6.4540  206.8430 C.ar  624  TYR624     -0.0009
    158  CD2       -0.7000    5.9530  204.9080 C.ar  624  TYR624     -0.0009
    159  CE1       -3.1440    5.9340  206.2220 C.ar  624  TYR624      0.0417
    160  CE2       -1.8350    5.4140  204.2840 C.ar  624  TYR624      0.0417
    161  CZ        -3.0610    5.4140  204.9380 C.ar  624  TYR624      0.1957
    162  OH        -4.1790    4.8740  204.3290 O.3   624  TYR624     -0.2866
    163  N          1.6540    1.8500  201.5730 N.3   628  TYR628     -0.1241
    164  CA         1.3280    3.0830  200.8790 C.3   628  TYR628      0.1605
    165  C          2.4610    4.0970  200.9580 C.2   628  TYR628      0.2264
    166  O          2.9720    4.5510  199.9500 O.2   628  TYR628     -0.2867
    167  CB         0.0630    3.6940  201.4790 C.3   628  TYR628      0.0534
    168  CG        -0.3950    4.9350  200.7580 C.ar  628  TYR628     -0.0201
    169  CD1        0.0290    6.1960  201.1610 C.ar  628  TYR628     -0.0009
    170  CD2       -1.2470    4.8440  199.6660 C.ar  628  TYR628     -0.0009
    171  CE1       -0.4120    7.3380  200.4970 C.ar  628  TYR628      0.0417
    172  CE2       -1.6790    5.9680  198.9870 C.ar  628  TYR628      0.0417
    173  CZ        -1.2700    7.2130  199.3980 C.ar  628  TYR628      0.1957
    174  OH        -1.7200    8.3140  198.6890 O.3   628  TYR628     -0.2866
    175  N          5.7800    3.3800  199.2440 N.3   631  ARG631     -0.1245
    176  CA         5.6300    3.2950  197.7900 C.3   631  ARG631      0.1563
    177  C          6.1450    4.5950  197.1850 C.2   631  ARG631      0.2260
    178  O          6.7780    4.5920  196.1270 O.2   631  ARG631     -0.2867
    179  CB         4.1690    3.0150  197.4040 C.3   631  ARG631      0.0307
    180  CG         3.8440    3.1770  195.9310 C.3   631  ARG631      0.0489
    181  CD         2.7310    2.2680  195.4300 C.3   631  ARG631      0.2205
    182  NE         1.4180    2.5750  195.9890 N.pl3 631  ARG631     -0.0865
    183  CZ         0.6460    1.7210  196.6600 C.cat 631  ARG631      0.5346
    184  NH1        1.0190    0.4520  196.8980 N.pl3 631  ARG631      0.1354
    185  NH2       -0.5390    2.1480  197.1000 N.pl3 631  ARG631      0.1354
    186  N         -7.4960    3.6260  210.1300 N.3   672  ASN672     -0.1225
    187  CA        -6.7460    3.9290  208.9200 C.3   672  ASN672      0.1785
    188  C         -5.7770    5.0950  209.1310 C.2   672  ASN672      0.2597
    189  O         -4.5520    4.9060  209.2000 O.2   672  ASN672     -0.2718
    190  CB        -7.7290    4.2600  207.8070 C.3   672  ASN672      0.1169
    191  CG        -7.0870    4.2290  206.4650 C.2   672  ASN672      0.2627
    192  OD1       -7.7680    4.0310  205.4760 O.2   672  ASN672     -0.2716
    193  ND2       -5.7710    4.3800  206.4100 N.am  672  ASN672     -0.0877
    194  N         -6.3310    6.2990  209.2240 N.am  673  VAL673     -0.1980
    195  CA        -5.5560    7.4660  209.5810 C.3   673  VAL673      0.1595
    196  C         -5.8440    7.6230  211.0620 C.2   673  VAL673      0.2287
    197  O         -6.8660    8.1960  211.4620 O.2   673  VAL673     -0.2864
    198  CB        -6.0020    8.7140  208.8280 C.3   673  VAL673      0.0276
    199  CG1       -5.1710    9.9230  209.2720 C.3   673  VAL673      0.0022
    200  CG2       -5.8510    8.4960  207.3300 C.3   673  VAL673      0.0022
    201  N        -12.7970    6.0580  209.7570 N.3   702  HIS702     -0.1226
    202  CA       -12.2850    6.9070  208.7040 C.3   702  HIS702      0.1752
    203  C        -13.3610    7.4330  207.7690 C.2   702  HIS702      0.2596
    204  O        -13.1740    8.4550  207.1240 O.2   702  HIS702     -0.2718
    205  CB       -11.2060    6.2160  207.8880 C.3   702  HIS702      0.0759
    206  CG       -10.3960    7.1840  207.0970 C.ar  702  HIS702      0.0818
    207  ND1       -9.6470    8.1740  207.6970 N.ar  702  HIS702     -0.2268
    208  CD2      -10.2790    7.3720  205.7620 C.ar  702  HIS702      0.1154
    209  CE1       -9.0750    8.9120  206.7620 C.ar  702  HIS702      0.1986
    210  NE2       -9.4350    8.4410  205.5810 N.ar  702  HIS702     -0.2212
    211  N        -14.4850    6.7270  207.6950 N.am  703  GLY703     -0.1957
    212  CA       -15.6270    7.1670  206.8960 C.3   703  GLY703      0.1869
    213  C        -16.4890    8.2670  207.4970 C.2   703  GLY703      0.2309
    214  O        -17.1580    8.9920  206.7620 O.2   703  GLY703     -0.2863
    215  N        -21.4640   17.2060  208.2380 N.3   714  TYR714     -0.1241
    216  CA       -21.7310   18.0850  207.1100 C.3   714  TYR714      0.1605
    217  C        -22.4660   19.3540  207.5700 C.2   714  TYR714      0.2264
    218  O        -22.2170   20.4510  207.0510 O.2   714  TYR714     -0.2867
    219  CB       -22.4270   17.3420  205.9600 C.3   714  TYR714      0.0534
    220  CG       -21.3970   16.6350  205.0940 C.ar  714  TYR714     -0.0201
    221  CD1      -20.5110   17.3680  204.3090 C.ar  714  TYR714     -0.0009
    222  CD2      -21.2730   15.2540  205.0950 C.ar  714  TYR714     -0.0009
    223  CE1      -19.5510   16.7510  203.5330 C.ar  714  TYR714      0.0417
    224  CE2      -20.3130   14.6290  204.3170 C.ar  714  TYR714      0.0417
    225  CZ       -19.4540   15.3820  203.5410 C.ar  714  TYR714      0.1957
    226  OH       -18.4770   14.7880  202.7760 O.3   714  TYR714     -0.2866
@<TRIPOS>BOND
     1    72    71    2
     2    77    78    2
     3    77    76    1
     4    75    76    1
     5    71    70    1
     6    76    79    1
     7    46    47    1
     8    69    70    1
     9    70    73    1
    10    55    53   ar
    11    55    56   ar
    12    53    51   ar
    13    79    80    1
    14    47    48    1
    15    47    50    1
    16    48    49    2
    17    56    54   ar
    18    74    73    1
    19    51    50    1
    20    51    52   ar
    21    80    81    1
    22    54    52   ar
    23    81    82    1
    24    82    83    1
    25   181   180    1
    26   181   182    1
    27   180   179    1
    28   182   183    2
    29   178   177    2
    30    63    65   ar
    31    63    62   ar
    32    44    45    1
    33    44    41    1
    34   183   184    1
    35   183   185    1
    36    61    62    1
    37    61    58    1
    38    65    67   ar
    39    57    58    1
    40   177   176    1
    41    59    58    1
    42    59    60    2
    43    62    64   ar
    44   179   176    1
    45    43    42    2
    46   176   175    1
    47    40    41    1
    48    41    42    1
    49    34    33    2
    50    67    68    1
    51    67    66   ar
    52    64    66   ar
    53   174   173    1
    54   129   128    1
    55   172   173   ar
    56   172   170   ar
    57    33    32    1
    58    20    21   ar
    59    20    18   ar
    60   128   126   ar
    61   128   127   ar
    62   126   124   ar
    63   173   171   ar
    64   127   125   ar
    65   170   168   ar
    66   124   123   ar
    67    21    19   ar
    68    18    17   ar
    69   166   165    2
    70   125   123   ar
    71   123   122    1
    72    25    24    2
    73    32    35    1
    74    32    31    1
    75   171   169   ar
    76    92    90   ar
    77    92    93   ar
    78   122   119    1
    79    38    37   ar
    80    87    86    2
    81    19    17   ar
    82    17    16    1
    83   168   169   ar
    84   168   167    1
    85   164   165    1
    86   164   167    1
    87   164   163    1
    88    90    89   ar
    89    35    36    1
    90    24    31   am
    91    24    23    1
    92    95    93   ar
    93    95    97   ar
    94    93    91   ar
    95    16    13    1
    96    10     9    1
    97     7     8    1
    98     7     6    1
    99    84    85    1
   100   120   119    1
   101   120   121    2
   102    37    36    1
   103    37    39   ar
   104    86    85    1
   105     9     8    2
   106     9    11    1
   107   119   118    1
   108     6     5    1
   109    89    91   ar
   110    89    88    1
   111   101   100    2
   112    23    22    1
   113    23    26    1
   114    97    96   ar
   115    91    94   ar
   116    85    88    1
   117   118   114   am
   118    13    12    1
   119    13    14    1
   120   226   225    1
   121    98    99    1
   122   148   150   ar
   123   148   146   ar
   124   150   149   ar
   125    30    28   ar
   126    28    29   ar
   127    28    27    1
   128    15    14    2
   129    27    26    1
   130     4     3    2
   131   102    99    1
   132   102   103    1
   133   116   117    1
   134   116   113    1
   135   100    99    1
   136   100   112   am
   137    12     3   am
   138     5     2    1
   139    96    94   ar
   140   223   225   ar
   141   223   221   ar
   142   225   224   ar
   143   146   145   ar
   144   146   144   ar
   145     3     2    1
   146   145   143   ar
   147   149   147   ar
   148   114   113    1
   149   114   115    2
   150   113   112    1
   151   160   158   ar
   152   160   161   ar
   153   144   147   ar
   154   144   142   ar
   155   221   220   ar
   156   224   222   ar
   157   162   161    1
   158   103   105   ar
   159   103   104   ar
   160     2     1    1
   161   143   142   ar
   162   108   105   ar
   163   108   110   ar
   164   142   141    1
   165   105   107   ar
   166   104   106   ar
   167   158   156   ar
   168   161   159   ar
   169   220   222   ar
   170   220   219    1
   171   110   111   ar
   172   192   191    2
   173   210   208   ar
   174   210   209   ar
   175   106   107   ar
   176   208   206   ar
   177   107   109   ar
   178   141   138    1
   179   219   216    1
   180   136   134    1
   181   156   157   ar
   182   156   155    1
   183   159   157   ar
   184   111   109   ar
   185   193   191   am
   186   191   190    1
   187   134   135    1
   188   134   131    1
   189   209   207   ar
   190   214   213    2
   191   155   152    1
   192   212   213    1
   193   212   211    1
   194   218   217    2
   195   138   137    1
   196   138   139    1
   197   206   207   ar
   198   206   205    1
   199   216   217    1
   200   216   215    1
   201   204   203    2
   202   200   198    1
   203   130   131    1
   204   140   139    2
   205   211   203   am
   206   131   132    1
   207   133   132    2
   208   203   202    1
   209   153   154    2
   210   153   152    1
   211   190   187    1
   212   205   202    1
   213   152   151    1
   214   202   201    1
   215   198   199    1
   216   198   195    1
   217   187   188    1
   218   187   186    1
   219   188   189    2
   220   188   194   am
   221   194   195    1
   222   195   196    1
   223   196   197    2
