@<TRIPOS>MOLECULE
tmp/2bgrA00.pdb
 170 169 0 0 0
SMALL
GASTEIGER

@<TRIPOS>ATOM
      1  N         37.4330   61.9060   36.3490 N.3    88  ARG88      -0.1231
      2  CA        38.3130   61.5130   37.4700 C.3    88  ARG88       0.1694
      3  C         39.4950   62.4500   37.6550 C.2    88  ARG88       0.2592
      4  O         39.8420   62.7650   38.7720 O.2    88  ARG88      -0.2718
      5  CB        38.8430   60.0830   37.2930 C.3    88  ARG88       0.0321
      6  CG        39.5800   59.4730   38.5090 C.3    88  ARG88       0.0489
      7  CD        40.1550   58.0940   38.2440 C.3    88  ARG88       0.2205
      8  NE        39.1660   57.0820   37.8390 N.pl3  88  ARG88      -0.0865
      9  CZ        38.4960   56.2880   38.6710 C.cat  88  ARG88       0.5346
     10  NH1       38.6820   56.3530   39.9960 N.pl3  88  ARG88       0.1354
     11  NH2       37.6410   55.3950   38.1810 N.pl3  88  ARG88       0.1354
     12  N         40.0810   62.9380   36.5730 N.am   89  HIS89      -0.1976
     13  CA        41.2470   63.8320   36.6590 C.3    89  HIS89       0.1656
     14  C         41.0070   65.2460   36.0970 C.2    89  HIS89       0.2291
     15  O         41.6480   66.2200   36.5210 O.2    89  HIS89      -0.2864
     16  CB        42.4030   63.1890   35.8620 C.3    89  HIS89       0.0771
     17  CG        42.6640   61.7580   36.2170 C.ar   89  HIS89       0.0820
     18  ND1       43.1750   61.3740   37.4440 N.ar   89  HIS89      -0.2267
     19  CD2       42.4890   60.6150   35.5070 C.ar   89  HIS89       0.1154
     20  CE1       43.2990   60.0550   37.4730 C.ar   89  HIS89       0.1986
     21  NE2       42.8870   59.5710   36.3120 N.ar   89  HIS89      -0.2212
     22  N         40.4890   58.2830   31.2750 N.3   168  GLU168     -0.1231
     23  CA        40.2000   57.2360   32.2510 C.3   168  GLU168      0.1699
     24  C         41.0680   55.9870   32.0810 C.2   168  GLU168      0.2592
     25  O         41.5500   55.4380   33.0850 O.2   168  GLU168     -0.2718
     26  CB        38.7070   56.8870   32.2000 C.3   168  GLU168      0.0402
     27  CG        38.2620   55.6930   33.0240 C.3   168  GLU168      0.1161
     28  CD        38.3280   55.9200   34.5200 C.2   168  GLU168      0.3649
     29  OE1       38.5430   57.0610   34.9500 O.co2 168  GLU168     -0.2457
     30  OE2       38.1910   54.9350   35.2760 O.co2 168  GLU168     -0.2457
     31  N         41.2330   55.5240   30.8420 N.am  169  GLU169     -0.1979
     32  CA        41.8090   54.2000   30.6050 C.3   169  GLU169      0.1602
     33  C         43.2340   54.1520   30.0440 C.2   169  GLU169      0.2287
     34  O         43.8630   53.0990   30.0590 O.2   169  GLU169     -0.2864
     35  CB        40.9140   53.3990   29.6490 C.3   169  GLU169      0.0415
     36  CG        39.4580   53.2940   30.0600 C.3   169  GLU169      0.1163
     37  CD        39.2250   52.5490   31.3780 C.2   169  GLU169      0.3649
     38  OE1       40.1940   52.1300   32.0770 O.co2 169  GLU169     -0.2457
     39  OE2       38.0230   52.3860   31.6990 O.co2 169  GLU169     -0.2457
     40  N         45.5030   58.1150   32.5050 N.3   172  SER172     -0.1217
     41  CA        45.1670   58.4680   33.8800 C.3   172  SER172      0.1889
     42  C         45.4300   59.9400   34.1740 C.2   172  SER172      0.2288
     43  O         45.9220   60.2990   35.2510 O.2   172  SER172     -0.2866
     44  CB        45.9610   57.5970   34.8430 C.3   172  SER172      0.2089
     45  OG        45.5510   56.2540   34.6750 O.3   172  SER172     -0.2183
     46  N         48.1680   47.1110   32.9400 N.3   320  PHE320     -0.1241
     47  CA        47.0410   47.7590   32.2830 C.3   320  PHE320      0.1605
     48  C         47.3910   48.4270   30.9520 C.2   320  PHE320      0.2264
     49  O         46.4860   48.8120   30.2370 O.2   320  PHE320     -0.2867
     50  CB        46.4010   48.7940   33.1820 C.3   320  PHE320      0.0534
     51  CG        45.8810   48.2480   34.4750 C.ar  320  PHE320     -0.0203
     52  CD1       44.5420   47.9170   34.6090 C.ar  320  PHE320     -0.0042
     53  CD2       46.7160   48.1260   35.5710 C.ar  320  PHE320     -0.0042
     54  CE1       44.0490   47.4310   35.7950 C.ar  320  PHE320     -0.0003
     55  CE2       46.2410   47.6210   36.7670 C.ar  320  PHE320     -0.0003
     56  CZ        44.8940   47.2670   36.8770 C.ar  320  PHE320     -0.0000
     57  N         36.5480   42.8010   44.7920 N.3   510  TYR510     -0.1241
     58  CA        36.7530   43.6350   43.6100 C.3   510  TYR510      0.1605
     59  C         37.0290   42.6780   42.4560 C.2   510  TYR510      0.2264
     60  O         36.1430   42.4500   41.6430 O.2   510  TYR510     -0.2867
     61  CB        37.8350   44.7160   43.8080 C.3   510  TYR510      0.0534
     62  CG        37.9470   45.6130   42.6020 C.ar  510  TYR510     -0.0201
     63  CD1       36.9930   46.5930   42.3490 C.ar  510  TYR510     -0.0009
     64  CD2       38.9560   45.4320   41.6670 C.ar  510  TYR510     -0.0009
     65  CE1       37.0710   47.3890   41.2080 C.ar  510  TYR510      0.0417
     66  CE2       39.0380   46.2220   40.5400 C.ar  510  TYR510      0.0417
     67  CZ        38.1010   47.2090   40.3240 C.ar  510  TYR510      0.1957
     68  OH        38.1670   47.9740   39.1760 O.3   510  TYR510     -0.2866
     69  N         31.9560   47.1290   44.5800 N.3   592  TRP592     -0.1227
     70  CA        31.7130   48.3820   43.8680 C.3   592  TRP592      0.1737
     71  C         32.3860   48.2430   42.5000 C.2   592  TRP592      0.2596
     72  O         33.4750   47.6790   42.3680 O.2   592  TRP592     -0.2718
     73  CB        32.3340   49.5470   44.6420 C.3   592  TRP592      0.0564
     74  CG        31.8210   50.9700   44.3850 C.ar  592  TRP592      0.0003
     75  CD1       31.7280   51.6610   43.1810 C.ar  592  TRP592      0.0946
     76  CD2       31.3970   51.8920   45.4000 C.ar  592  TRP592      0.0152
     77  NE1       31.2440   52.9300   43.4100 N.ar  592  TRP592     -0.2442
     78  CE2       31.0370   53.0980   44.7620 C.ar  592  TRP592      0.0810
     79  CE3       31.2650   51.8030   46.7970 C.ar  592  TRP592      0.0012
     80  CZ2       30.5620   54.2090   45.4750 C.ar  592  TRP592      0.0191
     81  CZ3       30.7950   52.9100   47.5110 C.ar  592  TRP592      0.0001
     82  CH2       30.4510   54.1010   46.8430 C.ar  592  TRP592      0.0015
     83  N         31.7190   48.7160   41.4610 N.am  593  SER593     -0.1938
     84  CA        32.3060   48.7250   40.0990 C.3   593  SER593      0.2055
     85  C         32.5310   47.3020   39.5300 C.2   593  SER593      0.2643
     86  O         31.5490   46.5490   39.3680 O.2   593  SER593     -0.2714
     87  CB        33.5730   49.6080   40.0770 C.3   593  SER593      0.2130
     88  OG        33.7980   49.9670   38.7300 O.3   593  SER593     -0.2179
     89  N         33.7690   46.8960   39.2290 N.am  594  TYR594     -0.1973
     90  CA        34.0210   45.4880   38.9000 C.3   594  TYR594      0.1639
     91  C         33.5350   44.6040   40.0430 C.2   594  TYR594      0.2290
     92  O         33.0150   43.5000   39.8180 O.2   594  TYR594     -0.2864
     93  CB        35.5040   45.2050   38.6030 C.3   594  TYR594      0.0560
     94  CG        35.7310   43.9570   37.7640 C.ar  594  TYR594     -0.0198
     95  CD1       35.5850   42.6790   38.3010 C.ar  594  TYR594     -0.0009
     96  CD2       36.0360   44.0570   36.4010 C.ar  594  TYR594     -0.0009
     97  CE1       35.7710   41.5330   37.5110 C.ar  594  TYR594      0.0417
     98  CE2       36.2270   42.9250   35.6130 C.ar  594  TYR594      0.0417
     99  CZ        36.0700   41.6690   36.1690 C.ar  594  TYR594      0.1957
    100  OH        36.2580   40.5540   35.3940 O.3   594  TYR594     -0.2866
    101  N         29.0830   46.8520   36.7020 N.3   619  VAL619     -0.1245
    102  CA        28.9630   46.4640   35.2940 C.3   619  VAL619      0.1561
    103  C         27.9670   45.2990   35.2610 C.2   619  VAL619      0.2260
    104  O         27.9300   44.4950   36.1870 O.2   619  VAL619     -0.2867
    105  CB        30.3270   46.0360   34.6800 C.3   619  VAL619      0.0252
    106  CG1       30.1530   45.3880   33.3250 C.3   619  VAL619      0.0019
    107  CG2       31.2350   47.2480   34.5710 C.3   619  VAL619      0.0019
    108  N         29.1900   43.4630   29.2540 N.3   622  TRP622     -0.1241
    109  CA        30.4520   44.0660   28.7920 C.3   622  TRP622      0.1605
    110  C         30.2860   45.0100   27.6020 C.2   622  TRP622      0.2264
    111  O         31.0030   46.0040   27.5060 O.2   622  TRP622     -0.2867
    112  CB        31.5690   43.0050   28.6160 C.3   622  TRP622      0.0550
    113  CG        32.0660   42.5660   29.9990 C.ar  622  TRP622      0.0003
    114  CD1       31.8800   41.3470   30.5840 C.ar  622  TRP622      0.0946
    115  CD2       32.7310   43.3770   30.9830 C.ar  622  TRP622      0.0152
    116  NE1       32.3710   41.3510   31.8660 N.ar  622  TRP622     -0.2442
    117  CE2       32.9010   42.5870   32.1390 C.ar  622  TRP622      0.0810
    118  CE3       33.1810   44.7090   31.0130 C.ar  622  TRP622      0.0012
    119  CZ2       33.5370   43.0640   33.2950 C.ar  622  TRP622      0.0191
    120  CZ3       33.7950   45.1830   32.1570 C.ar  622  TRP622      0.0001
    121  CH2       33.9580   44.3650   33.2970 C.ar  622  TRP622      0.0015
    122  N         30.2690   48.7800   28.6350 N.3   625  TYR625     -0.1241
    123  CA        31.4600   49.4260   29.1880 C.3   625  TYR625      0.1605
    124  C         32.3990   49.8660   28.0460 C.2   625  TYR625      0.2264
    125  O         32.1620   49.5790   26.8360 O.2   625  TYR625     -0.2867
    126  CB        32.1240   48.5320   30.2810 C.3   625  TYR625      0.0534
    127  CG        32.9940   49.3540   31.1920 C.ar  625  TYR625     -0.0201
    128  CD1       32.4500   50.4050   31.9070 C.ar  625  TYR625     -0.0009
    129  CD2       34.3740   49.1560   31.2520 C.ar  625  TYR625     -0.0009
    130  CE1       33.2340   51.2090   32.6930 C.ar  625  TYR625      0.0417
    131  CE2       35.1860   49.9510   32.0500 C.ar  625  TYR625      0.0417
    132  CZ        34.6070   50.9900   32.7610 C.ar  625  TYR625      0.1957
    133  OH        35.3730   51.8270   33.5480 O.3   625  TYR625     -0.2866
    134  N         39.1970   49.5070   28.1190 N.3   629  TYR629     -0.1241
    135  CA        39.2790   48.5400   29.2230 C.3   629  TYR629      0.1605
    136  C         38.6680   47.1930   28.8140 C.2   629  TYR629      0.2264
    137  O         39.2950   46.1430   28.9160 O.2   629  TYR629     -0.2867
    138  CB        38.5620   49.0690   30.4560 C.3   629  TYR629      0.0534
    139  CG        38.5390   48.1500   31.6590 C.ar  629  TYR629     -0.0201
    140  CD1       37.5970   47.1130   31.7910 C.ar  629  TYR629     -0.0009
    141  CD2       39.4420   48.3390   32.6920 C.ar  629  TYR629     -0.0009
    142  CE1       37.5800   46.3080   32.9090 C.ar  629  TYR629      0.0417
    143  CE2       39.4450   47.5350   33.8110 C.ar  629  TYR629      0.0417
    144  CZ        38.5170   46.5180   33.9260 C.ar  629  TYR629      0.1957
    145  OH        38.5620   45.7430   35.0590 O.3   629  TYR629     -0.2866
    146  N         30.8730   56.8530   34.0620 N.3   673  ASN673     -0.1225
    147  CA        31.8470   55.7660   33.8850 C.3   673  ASN673      0.1785
    148  C         31.1590   54.4080   33.6410 C.2   673  ASN673      0.2597
    149  O         31.1750   53.8610   32.5110 O.2   673  ASN673     -0.2718
    150  CB        32.7580   55.7490   35.1140 C.3   673  ASN673      0.1169
    151  CG        33.9700   54.8380   34.9650 C.2   673  ASN673      0.2627
    152  OD1       34.0330   53.9370   34.1010 O.2   673  ASN673     -0.2716
    153  ND2       34.9740   55.1020   35.7890 N.am  673  ASN673     -0.0877
    154  N         30.5570   53.8690   34.6990 N.am  674  VAL674     -0.1980
    155  CA        29.6450   52.7250   34.5990 C.3   674  VAL674      0.1595
    156  C         28.2520   53.3310   34.5860 C.2   674  VAL674      0.2287
    157  O         27.7400   53.8150   35.5950 O.2   674  VAL674     -0.2864
    158  CB        29.7930   51.7480   35.7650 C.3   674  VAL674      0.0276
    159  CG1       28.8040   50.5830   35.6210 C.3   674  VAL674      0.0022
    160  CG2       31.2100   51.2350   35.8340 C.3   674  VAL674      0.0022
    161  N         30.3730   57.9720   39.7490 N.3   703  HIS703     -0.1241
    162  CA        30.8710   56.6340   40.0920 C.3   703  HIS703      0.1621
    163  C         31.3870   56.5510   41.5200 C.2   703  HIS703      0.2264
    164  O         31.3690   55.4820   42.1000 O.2   703  HIS703     -0.2867
    165  CB        31.9430   56.1790   39.1030 C.3   703  HIS703      0.0745
    166  CG        32.1770   54.6960   39.0710 C.ar  703  HIS703      0.0817
    167  ND1       31.1690   53.7790   38.8400 N.ar  703  HIS703     -0.2268
    168  CD2       33.3170   53.9710   39.2080 C.ar  703  HIS703      0.1154
    169  CE1       31.6700   52.5540   38.8910 C.ar  703  HIS703      0.1986
    170  NE2       32.9710   52.6410   39.1040 N.ar  703  HIS703     -0.2212
@<TRIPOS>BOND
     1   125   124    2
     2   111   110    2
     3   110   109    1
     4   124   123    1
     5   134   135    1
     6   112   109    1
     7   112   113    1
     8   122   123    1
     9   109   108    1
    10   136   137    2
    11   136   135    1
    12   123   126    1
    13   135   138    1
    14    35    36    1
    15    35    32    1
    16   113   114   ar
    17   113   115   ar
    18    33    34    2
    19    33    32    1
    20    36    37    1
    21    49    48    2
    22   126   127    1
    23   138   139    1
    24   114   116   ar
    25    32    31    1
    26    31    24   am
    27    48    47    1
    28   115   118   ar
    29   115   117   ar
    30   118   120   ar
    31   127   129   ar
    32   127   128   ar
    33   129   131   ar
    34    22    23    1
    35    37    39   ar
    36    37    38   ar
    37   139   140   ar
    38   139   141   ar
    39   140   142   ar
    40   116   117   ar
    41   128   130   ar
    42   131   132   ar
    43    24    23    1
    44    24    25    2
    45   117   119   ar
    46   120   121   ar
    47    26    23    1
    48    26    27    1
    49    47    46    1
    50    47    50    1
    51    40    41    1
    52   149   148    2
    53   141   143   ar
    54   130   132   ar
    55   132   133    1
    56   142   144   ar
    57    27    28    1
    58    50    51    1
    59   119   121   ar
    60   106   105    1
    61   148   147    1
    62   148   154   am
    63   143   144   ar
    64    41    42    1
    65    41    44    1
    66   147   146    1
    67   147   150    1
    68   144   145    1
    69   152   151    2
    70    42    43    2
    71    51    52   ar
    72    51    53   ar
    73    28    29   ar
    74    28    30   ar
    75   107   105    1
    76   156   155    1
    77   156   157    2
    78   155   154    1
    79   155   158    1
    80    52    54   ar
    81    45    44    1
    82   105   102    1
    83   151   150    1
    84   151   153   am
    85   103   102    1
    86   103   104    2
    87   102   101    1
    88   100    99    1
    89    19    17   ar
    90    19    21   ar
    91    53    55   ar
    92    98    99   ar
    93    98    96   ar
    94   159   158    1
    95   158   160    1
    96    54    56   ar
    97    16    17    1
    98    16    13    1
    99    14    15    2
   100    14    13    1
   101    99    97   ar
   102    17    18   ar
   103    21    20   ar
   104     1     2    1
   105    96    94   ar
   106    12    13    1
   107    12     3   am
   108    55    56   ar
   109     5     2    1
   110     5     6    1
   111    18    20   ar
   112     2     3    1
   113    97    95   ar
   114     3     4    2
   115    94    95   ar
   116    94    93    1
   117     8     7    1
   118     8     9    2
   119    11     9    1
   120     7     6    1
   121    93    90    1
   122     9    10    1
   123    88    87    1
   124   167   169   ar
   125   167   166   ar
   126   169   170   ar
   127    90    89    1
   128    90    91    1
   129   166   165    1
   130   166   168   ar
   131   165   162    1
   132   170   168   ar
   133    68    67    1
   134    89    85   am
   135    86    85    2
   136    85    84    1
   137   161   162    1
   138    92    91    2
   139    87    84    1
   140   162   163    1
   141    84    83    1
   142    67    66   ar
   143    67    65   ar
   144    66    64   ar
   145    65    63   ar
   146    83    71   am
   147   163   164    2
   148    60    59    2
   149    64    62   ar
   150    63    62   ar
   151    72    71    2
   152    59    58    1
   153    71    70    1
   154    62    61    1
   155    75    77   ar
   156    75    74   ar
   157    77    78   ar
   158    58    61    1
   159    58    57    1
   160    70    69    1
   161    70    73    1
   162    74    73    1
   163    74    76   ar
   164    78    76   ar
   165    78    80   ar
   166    76    79   ar
   167    80    82   ar
   168    79    81   ar
   169    82    81   ar
