@<TRIPOS>MOLECULE
tmp/2bh2A00.pdb
 166 162 0 0 0
SMALL
GASTEIGER

@<TRIPOS>ATOM
      1  N         69.6130    0.1880   18.1690 N.3   249  PHE249     -0.1227
      2  CA        70.9330    0.4270   17.6160 C.3   249  PHE249      0.1736
      3  C         71.0170    0.7100   16.1030 C.2   249  PHE249      0.2595
      4  O         70.4610   -0.0340   15.2840 O.2   249  PHE249     -0.2718
      5  CB        71.8310   -0.7820   17.8900 C.3   249  PHE249      0.0547
      6  CG        73.2340   -0.5450   17.4910 C.ar  249  PHE249     -0.0202
      7  CD1       74.1060    0.0740   18.3700 C.ar  249  PHE249     -0.0042
      8  CD2       73.6520   -0.8210   16.2080 C.ar  249  PHE249     -0.0042
      9  CE1       75.3930    0.3420   17.9930 C.ar  249  PHE249     -0.0003
     10  CE2       74.9400   -0.5160   15.8180 C.ar  249  PHE249     -0.0003
     11  CZ        75.8090    0.0610   16.7190 C.ar  249  PHE249     -0.0000
     12  N         71.7100    1.8120   15.7950 N.am  250  ILE250     -0.1966
     13  CA        72.4440    2.0150   14.5150 C.3   250  ILE250      0.1727
     14  C         73.8110    2.5930   14.8330 C.2   250  ILE250      0.2616
     15  O         74.0300    3.1430   15.8920 O.2   250  ILE250     -0.2715
     16  CB        71.7230    2.9580   13.5390 C.3   250  ILE250      0.0290
     17  CG1       71.4840    4.3270   14.1900 C.3   250  ILE250      0.0022
     18  CG2       70.4300    2.3490   13.1160 C.3   250  ILE250      0.0023
     19  CD1       71.1150    5.4330   13.2810 C.3   250  ILE250      0.0001
     20  N         74.7400    2.4240   13.9270 N.am  251  GLN251     -0.1977
     21  CA        76.0870    2.9150   14.1430 C.3   251  GLN251      0.1601
     22  C         76.0380    4.4130   14.3170 C.2   251  GLN251      0.2287
     23  O         75.2270    5.0980   13.6840 O.2   251  GLN251     -0.2864
     24  CB        77.0110    2.5410   12.9910 C.3   251  GLN251      0.0394
     25  CG        77.2440    0.9890   12.8020 C.3   251  GLN251      0.0908
     26  CD        78.1260    0.2960   13.8510 C.2   251  GLN251      0.2608
     27  OE1       78.8400    0.9390   14.6730 O.2   251  GLN251     -0.2717
     28  NE2       78.0640   -1.0530   13.8330 N.am  251  GLN251     -0.0878
     29  N         76.1710  -13.2970    8.5400 N.3   278  ASP278     -0.1239
     30  CA        76.4070  -12.0690    9.2800 C.3   278  ASP278      0.1674
     31  C         75.7640  -12.2150   10.6460 C.2   278  ASP278      0.2266
     32  O         74.5360  -12.1490   10.7620 O.2   278  ASP278     -0.2867
     33  CB        75.8360  -10.8460    8.5490 C.3   278  ASP278      0.1410
     34  CG        76.0770   -9.4570    9.3250 C.2   278  ASP278      0.3668
     35  OD1       76.9220   -9.3740   10.3070 O.co2 278  ASP278     -0.2456
     36  OD2       75.4230   -8.3760    9.0000 O.co2 278  ASP278     -0.2456
     37  N         75.0730  -11.0230   14.6590 N.3   280  PHE280     -0.1227
     38  CA        74.7570   -9.7550   15.3610 C.3   280  PHE280      0.1736
     39  C         74.4780   -8.6560   14.3150 C.2   280  PHE280      0.2596
     40  O         75.0450   -7.5550   14.3500 O.2   280  PHE280     -0.2718
     41  CB        75.8420   -9.3530   16.3810 C.3   280  PHE280      0.0547
     42  CG        76.3790  -10.5200   17.2330 C.ar  280  PHE280     -0.0202
     43  CD1       75.8980  -10.7580   18.4940 C.ar  280  PHE280     -0.0042
     44  CD2       77.4170  -11.3300   16.7600 C.ar  280  PHE280     -0.0042
     45  CE1       76.3780  -11.7520   19.2610 C.ar  280  PHE280     -0.0003
     46  CE2       77.8890  -12.3720   17.5330 C.ar  280  PHE280     -0.0003
     47  CZ        77.3850  -12.5870   18.7860 C.ar  280  PHE280     -0.0000
     48  N         73.5760   -8.9590   13.3910 N.am  281  CYS281     -0.1956
     49  CA        73.4430   -8.1590   12.1950 C.3   281  CYS281      0.1843
     50  C         72.5580   -6.9230   12.3610 C.2   281  CYS281      0.2626
     51  O         72.4890   -6.1280   11.4530 O.2   281  CYS281     -0.2714
     52  CB        72.8460   -9.0060   11.0750 C.3   281  CYS281      0.0997
     53  SG        71.1190   -9.6260   11.4090 S.3   281  CYS281     -0.0797
     54  N         71.8680   -6.7630   13.4880 N.am  282  GLY282     -0.1940
     55  CA        70.9470   -5.6340   13.7050 C.3   282  GLY282      0.2014
     56  C         69.9230   -5.4950   12.5700 C.2   282  GLY282      0.2638
     57  O         69.3190   -6.4970   12.1460 O.2   282  GLY282     -0.2714
     58  N         69.7690   -4.2710   12.0370 N.am  283  MET283     -0.1976
     59  CA        68.7730   -4.0250   10.9830 C.3   283  MET283      0.1605
     60  C         69.3640   -4.2280    9.5950 C.2   283  MET283      0.2287
     61  O         68.7210   -3.9460    8.5660 O.2   283  MET283     -0.2864
     62  CB        68.0770   -2.6540   11.1580 C.3   283  MET283      0.0413
     63  CG        68.9160   -1.4380   11.5150 C.3   283  MET283      0.0598
     64  SD        70.5050   -1.2510   10.6740 S.3   283  MET283     -0.1393
     65  CE        69.9420   -0.6560    9.0480 C.3   283  MET283      0.0692
     66  N         72.7260   -3.3970    8.5730 N.3   285  ASN285     -0.1225
     67  CA        73.7700   -2.4540    8.2140 C.3   285  ASN285      0.1785
     68  C         74.8380   -3.0640    7.3010 C.2   285  ASN285      0.2597
     69  O         75.1570   -2.4840    6.2640 O.2   285  ASN285     -0.2718
     70  CB        74.4590   -1.9260    9.4870 C.3   285  ASN285      0.1169
     71  CG        75.4720   -0.8400    9.1750 C.2   285  ASN285      0.2627
     72  OD1       75.1730    0.1070    8.4310 O.2   285  ASN285     -0.2716
     73  ND2       76.6670   -0.9370    9.7770 N.am  285  ASN285     -0.0877
     74  N         75.3860   -4.2190    7.6860 N.am  286  PHE286     -0.1976
     75  CA        76.3090   -4.9210    6.7870 C.3   286  PHE286      0.1639
     76  C         75.6350   -5.9450    5.8550 C.2   286  PHE286      0.2290
     77  O         76.1210   -6.1660    4.7510 O.2   286  PHE286     -0.2864
     78  CB        77.3900   -5.6590    7.5330 C.3   286  PHE286      0.0560
     79  CG        78.3300   -4.7730    8.3320 C.ar  286  PHE286     -0.0200
     80  CD1       79.5730   -4.4720    7.8430 C.ar  286  PHE286     -0.0042
     81  CD2       78.0320   -4.4100    9.6230 C.ar  286  PHE286     -0.0042
     82  CE1       80.4970   -3.7620    8.5830 C.ar  286  PHE286     -0.0003
     83  CE2       78.9790   -3.7010   10.4040 C.ar  286  PHE286     -0.0003
     84  CZ        80.2150   -3.3820    9.8550 C.ar  286  PHE286     -0.0000
     85  N         70.2250  -12.1130   14.5530 N.3   301  GLU301     -0.1231
     86  CA        70.0320  -10.9670   15.4830 C.3   301  GLU301      0.1699
     87  C         69.1240  -11.3350   16.6340 C.2   301  GLU301      0.2593
     88  O         68.1860  -12.0620   16.4400 O.2   301  GLU301     -0.2718
     89  CB        69.4850   -9.7890   14.6970 C.3   301  GLU301      0.0402
     90  CG        69.0610   -8.5250   15.4600 C.3   301  GLU301      0.1161
     91  CD        70.0440   -8.0030   16.4880 C.2   301  GLU301      0.3649
     92  OE1       71.2340   -7.7880   16.1670 O.co2 301  GLU301     -0.2457
     93  OE2       69.6100   -7.7490   17.6310 O.co2 301  GLU301     -0.2457
     94  N         69.3840  -10.8090   17.8350 N.am  302  GLY302     -0.1942
     95  CA        68.5750  -11.0900   19.0290 C.3   302  GLY302      0.2014
     96  C         67.3350  -10.2220   19.2600 C.2   302  GLY302      0.2638
     97  O         66.3830  -10.6370   19.9070 O.2   302  GLY302     -0.2714
     98  N         67.3260   -8.9920   18.7420 N.am  303  VAL303     -0.1977
     99  CA        66.2250   -8.0900   19.0420 C.3   303  VAL303      0.1596
    100  C         65.1960   -8.2380   17.9240 C.2   303  VAL303      0.2287
    101  O         65.5850   -8.1000   16.7520 O.2   303  VAL303     -0.2864
    102  CB        66.7200   -6.6360   19.1370 C.3   303  VAL303      0.0276
    103  CG1       65.5400   -5.7130   19.3740 C.3   303  VAL303      0.0022
    104  CG2       67.7270   -6.5000   20.2850 C.3   303  VAL303      0.0022
    105  N         64.7510   -5.4360   15.2970 N.3   306  LEU306     -0.1245
    106  CA        65.8600   -5.3200   14.3760 C.3   306  LEU306      0.1561
    107  C         65.8240   -6.4150   13.3340 C.2   306  LEU306      0.2260
    108  O         66.0500   -6.1430   12.1690 O.2   306  LEU306     -0.2867
    109  CB        67.2140   -5.2770   15.1100 C.3   306  LEU306      0.0270
    110  CG        67.4420   -3.9940   15.8540 C.3   306  LEU306      0.0019
    111  CD1       68.5760   -4.1410   16.8210 C.3   306  LEU306      0.0001
    112  CD2       67.7260   -2.8300   14.9040 C.3   306  LEU306      0.0001
    113  N         67.5940  -15.1880   16.9970 N.3   327  GLU327     -0.1231
    114  CA        68.2260  -16.1030   17.9140 C.3   327  GLU327      0.1699
    115  C         69.0090  -15.3560   18.9810 C.2   327  GLU327      0.2592
    116  O         69.5500  -14.2520   18.7480 O.2   327  GLU327     -0.2718
    117  CB        69.2500  -16.9870   17.1660 C.3   327  GLU327      0.0402
    118  CG        68.7160  -17.7560   15.9520 C.3   327  GLU327      0.1161
    119  CD        67.8580  -18.9600   16.3490 C.2   327  GLU327      0.3649
    120  OE1       67.6120  -19.1730   17.5950 O.co2 327  GLU327     -0.2457
    121  OE2       67.4710  -19.6910   15.3930 O.co2 327  GLU327     -0.2457
    122  N         69.1420  -15.9960   20.1300 N.am  328  ASN328     -0.1960
    123  CA        70.0030  -15.5030   21.1900 C.3   328  ASN328      0.1819
    124  C         71.3330  -16.1660   20.9620 C.2   328  ASN328      0.2621
    125  O         71.4340  -17.3670   21.1950 O.2   328  ASN328     -0.2715
    126  CB        69.4740  -15.9500   22.5480 C.3   328  ASN328      0.1195
    127  CG        70.3590  -15.4770   23.7020 C.2   328  ASN328      0.2630
    128  OD1       71.4930  -15.1240   23.5070 O.2   328  ASN328     -0.2716
    129  ND2       69.8130  -15.4630   24.8940 N.am  328  ASN328     -0.0877
    130  N         72.3660  -15.4080   20.5670 N.am  329  LEU329     -0.1963
    131  CA        73.6490  -16.0410   20.2190 C.3   329  LEU329      0.1728
    132  C         74.5280  -16.4400   21.4120 C.2   329  LEU329      0.2616
    133  O         75.6610  -16.7970   21.2120 O.2   329  LEU329     -0.2715
    134  CB        74.4590  -15.1840   19.2650 C.3   329  LEU329      0.0311
    135  CG        73.7940  -15.0720   17.9060 C.3   329  LEU329      0.0022
    136  CD1       74.3350  -13.8530   17.1420 C.3   329  LEU329      0.0001
    137  CD2       74.0380  -16.2840   17.1290 C.3   329  LEU329      0.0001
    138  N         74.0210  -16.3430   22.6340 N.am  330  GLU330     -0.1977
    139  CA        74.7150  -16.8420   23.8400 C.3   330  GLU330      0.1602
    140  C         74.1000  -18.1540   24.2910 C.2   330  GLU330      0.2287
    141  O         74.5770  -18.7300   25.2540 O.2   330  GLU330     -0.2864
    142  CB        74.6440  -15.8370   25.0210 C.3   330  GLU330      0.0415
    143  CG        75.1120  -14.4150   24.6790 C.3   330  GLU330      0.1163
    144  CD        74.7600  -13.3710   25.7590 C.2   330  GLU330      0.3649
    145  OE1       75.1250  -12.1900   25.5750 O.co2 330  GLU330     -0.2457
    146  OE2       74.1280  -13.7280   26.7970 O.co2 330  GLU330     -0.2457
    147  N         79.6610   -8.6730   14.3090 N.3   349  ASP349     -0.1225
    148  CA        79.7530   -7.3600   14.8610 C.3   349  ASP349      0.1790
    149  C         79.0060   -7.3110   16.2170 C.2   349  ASP349      0.2440
    150  O         77.9600   -6.6480   16.3410 O.2   349  ASP349     -0.2733
    151  CB        79.2290   -6.3260   13.8220 C.3   349  ASP349      0.1423
    152  CG        79.2500   -4.9420   14.3480 C.2   349  ASP349      0.3668
    153  OD1       80.1000   -4.7490   15.2420 O.co2 349  ASP349     -0.2456
    154  OD2       78.4520   -4.0110   14.0270 O.co2 349  ASP349     -0.2456
    155  N         79.5270   -8.0080   17.2300 N.am  350  PRO350     -0.2718
    156  CA        78.7990   -8.2000   18.4710 C.3   350  PRO350      0.1535
    157  C         78.8340   -7.0040   19.3950 C.2   350  PRO350      0.2598
    158  O         79.5980   -6.0970   19.1840 O.2   350  PRO350     -0.2715
    159  CB        79.5510   -9.3430   19.1250 C.3   350  PRO350      0.0310
    160  CG        80.9400   -9.1090   18.7150 C.3   350  PRO350      0.0237
    161  CD        80.8360   -8.6660   17.2980 C.3   350  PRO350      0.0939
    162  N         77.9750   -7.0010   20.3940 N.am  351  ALA351     -0.1978
    163  CA        77.9840   -5.9650   21.4260 C.3   351  ALA351      0.1597
    164  C         79.2580   -6.0960   22.2450 C.2   351  ALA351      0.2287
    165  O         80.0170   -7.0170   22.0240 O.2   351  ALA351     -0.2864
    166  CB        76.7390   -6.0880   22.3410 C.3   351  ALA351      0.0319
@<TRIPOS>BOND
     1    77    76    2
     2    76    75    1
     3    69    68    2
     4    75    78    1
     5    75    74    1
     6    68    74   am
     7    68    67    1
     8    78    79    1
     9    80    79   ar
    10    80    82   ar
    11    67    66    1
    12    67    70    1
    13    79    81   ar
    14    72    71    2
    15    29    30    1
    16    33    30    1
    17    33    34    1
    18    61    60    2
    19    82    84   ar
    20    36    34   ar
    21    65    64    1
    22    71    70    1
    23    71    73   am
    24    30    31    1
    25    34    35   ar
    26    60    59    1
    27    81    83   ar
    28    84    83   ar
    29    31    32    2
    30    64    63    1
    31    59    62    1
    32    59    58    1
    33    52    53    1
    34    52    49    1
    35    62    63    1
    36    51    50    2
    37    58    56   am
    38    57    56    2
    39   108   107    2
    40    49    50    1
    41    49    48    1
    42    50    54   am
    43    56    55    1
    44    25    24    1
    45    25    26    1
    46    24    21    1
    47    18    16    1
    48    19    17    1
    49   107   106    1
    50    48    39   am
    51    54    55    1
    52    16    17    1
    53    16    13    1
    54    23    22    2
    55   151   152    1
    56   151   148    1
    57    28    26   am
    58    26    27    2
    59    20    21    1
    60    20    14   am
    61   154   152   ar
    62    21    22    1
    63   147   148    1
    64    39    40    2
    65    39    38    1
    66   152   153   ar
    67   106   109    1
    68   106   105    1
    69    13    14    1
    70    13    12    1
    71    85    86    1
    72    37    38    1
    73    89    90    1
    74    89    86    1
    75    14    15    2
    76   148   149    1
    77   112   110    1
    78   109   110    1
    79     4     3    2
    80    38    41    1
    81   121   119   ar
    82    90    91    1
    83    86    87    1
    84    12     3   am
    85    10     8   ar
    86    10    11   ar
    87   110   111    1
    88   118   119    1
    89   118   117    1
    90     3     2    1
    91    92    91   ar
    92     8     6   ar
    93   149   150    2
    94   149   155   am
    95   119   120   ar
    96    41    42    1
    97    88    87    2
    98    91    93   ar
    99    87    94   am
   100    11     9   ar
   101   101   100    2
   102    44    42   ar
   103    44    46   ar
   104   113   114    1
   105   137   135    1
   106   136   135    1
   107   117   114    1
   108   155   161    1
   109   155   156    1
   110    42    43   ar
   111   161   160    1
   112     6     5    1
   113     6     7   ar
   114    46    47   ar
   115     2     5    1
   116     2     1    1
   117    94    95    1
   118   135   134    1
   119   114   115    1
   120   100    99    1
   121     9     7   ar
   122   156   159    1
   123   156   157    1
   124    43    45   ar
   125   160   159    1
   126    98    99    1
   127    98    96   am
   128   116   115    2
   129    47    45   ar
   130   115   122   am
   131    95    96    1
   132    99   102    1
   133   102   103    1
   134   102   104    1
   135   158   157    2
   136    96    97    2
   137   134   131    1
   138   157   162   am
   139   122   123    1
   140   131   130    1
   141   131   132    1
   142   162   163    1
   143   130   124   am
   144   124   123    1
   145   124   125    2
   146   123   126    1
   147   133   132    2
   148   132   138   am
   149   163   164    1
   150   163   166    1
   151   165   164    2
   152   126   127    1
   153   138   139    1
   154   128   127    2
   155   127   129   am
   156   139   140    1
   157   139   142    1
   158   140   141    2
   159   143   142    1
   160   143   144    1
   161   145   144   ar
   162   144   146   ar
