@<TRIPOS>MOLECULE
tmp/2bh9A00.pdb
 166 164 0 0 0
SMALL
GASTEIGER

@<TRIPOS>ATOM
      1  N         23.2420   57.7800   45.7300 N.3    12  GLY12      -0.1225
      2  CA        22.0450   57.0820   45.2570 C.3    12  GLY12       0.1811
      3  C         22.4990   55.7770   44.6100 C.2    12  GLY12       0.2280
      4  O         21.7670   55.1640   43.8400 O.2    12  GLY12      -0.2866
      5  N         22.6110   52.6500   45.0830 N.3    14  SER14      -0.1202
      6  CA        21.7040   51.5030   44.9800 C.3    14  SER14       0.2020
      7  C         20.6670   51.5010   43.8390 C.2    14  SER14       0.2619
      8  O         20.0190   50.4710   43.5980 O.2    14  SER14      -0.2717
      9  CB        21.0090   51.2440   46.3290 C.3    14  SER14       0.2103
     10  OG        20.2900   52.3880   46.7550 O.3    14  SER14      -0.2182
     11  N         20.5130   52.6300   43.1470 N.am   15  GLY15      -0.1942
     12  CA        19.5120   52.7590   42.0740 C.3    15  GLY15       0.2014
     13  C         19.8690   52.0530   40.7620 C.2    15  GLY15       0.2639
     14  O         20.9700   51.4880   40.6180 O.2    15  GLY15      -0.2714
     15  N         18.9340   52.1100   39.8040 N.am   16  ASP16      -0.1957
     16  CA        19.0820   51.4640   38.4880 C.3    16  ASP16       0.1840
     17  C         20.0740   52.1660   37.5580 C.2    16  ASP16       0.2621
     18  O         20.8390   51.5060   36.8490 O.2    16  ASP16      -0.2715
     19  CB        17.7190   51.3340   37.7950 C.3    16  ASP16       0.1450
     20  CG        16.7650   50.3950   38.5420 C.2    16  ASP16       0.3671
     21  OD1       17.2470   49.5330   39.3190 O.co2  16  ASP16      -0.2456
     22  OD2       15.5370   50.4770   38.2980 O.co2  16  ASP16      -0.2456
     23  N         20.0150   53.4990   37.5170 N.am   17  LEU17      -0.1977
     24  CA        20.9630   54.2700   36.7340 C.3    17  LEU17       0.1596
     25  C         22.3710   53.9420   37.2410 C.2    17  LEU17       0.2287
     26  O         23.3040   53.7790   36.4560 O.2    17  LEU17      -0.2864
     27  CB        20.6960   55.7720   36.8670 C.3    17  LEU17       0.0297
     28  CG        21.5200   56.6750   35.9160 C.3    17  LEU17       0.0022
     29  CD1       20.9960   56.6510   34.4930 C.3    17  LEU17       0.0001
     30  CD2       21.6520   58.1100   36.3970 C.3    17  LEU17       0.0001
     31  N         24.1020   51.8890   34.6190 N.3    21  LYS21      -0.1245
     32  CA        24.9010   52.8240   33.8220 C.3    21  LYS21       0.1561
     33  C         26.1510   53.4290   34.4690 C.2    21  LYS21       0.2260
     34  O         27.1640   53.6330   33.7910 O.2    21  LYS21      -0.2867
     35  CB        24.0230   53.9470   33.2250 C.3    21  LYS21       0.0271
     36  CG        23.0090   53.4700   32.1920 C.3    21  LYS21       0.0035
     37  CD        22.6670   54.5660   31.1970 C.3    21  LYS21       0.0206
     38  CE        21.2500   55.0800   31.4120 C.3    21  LYS21       0.1093
     39  NZ        21.1460   56.5520   31.1900 N.3    21  LYS21      -0.1314
     40  N         20.9840   54.9720   51.1100 N.3    46  ARG46      -0.1231
     41  CA        20.3120   54.6600   52.3670 C.3    46  ARG46       0.1694
     42  C         20.2870   53.1570   52.6570 C.2    46  ARG46       0.2592
     43  O         20.3270   52.7440   53.8160 O.2    46  ARG46      -0.2718
     44  CB        18.8870   55.2110   52.3690 C.3    46  ARG46       0.0321
     45  CG        18.7860   56.7180   52.4590 C.3    46  ARG46       0.0489
     46  CD        17.3530   57.1360   52.7530 C.3    46  ARG46       0.2205
     47  NE        16.5330   57.1480   51.5430 N.pl3  46  ARG46      -0.0865
     48  CZ        15.4790   56.3620   51.3410 C.cat  46  ARG46       0.5346
     49  NH1       15.1150   55.4730   52.2600 N.pl3  46  ARG46       0.1354
     50  NH2       14.7930   56.4560   50.2070 N.pl3  46  ARG46       0.1354
     51  N         20.1440   52.3530   51.6090 N.am   47  SER47      -0.1952
     52  CA        20.1200   50.8910   51.7370 C.3    47  SER47       0.1924
     53  C         21.4160   50.4370   52.3900 C.2    47  SER47       0.2314
     54  O         22.4120   51.1290   52.3200 O.2    47  SER47      -0.2863
     55  CB        19.9860   50.2410   50.3540 C.3    47  SER47       0.2116
     56  OG        18.9370   50.8320   49.6020 O.3    47  SER47      -0.2180
     57  N         19.9490   61.1250   53.1300 N.3    86  TYR86      -0.1241
     58  CA        20.3420   62.2430   52.2880 C.3    86  TYR86       0.1605
     59  C         20.3940   63.6190   52.9110 C.2    86  TYR86       0.2264
     60  O         20.9130   64.5550   52.2960 O.2    86  TYR86      -0.2867
     61  CB        19.5520   62.2420   50.9650 C.3    86  TYR86       0.0534
     62  CG        19.7010   60.9420   50.1900 C.ar   86  TYR86      -0.0201
     63  CD1       20.9600   60.4060   49.9390 C.ar   86  TYR86      -0.0009
     64  CD2       18.5840   60.1830   49.8290 C.ar   86  TYR86      -0.0009
     65  CE1       21.1050   59.1860   49.3050 C.ar   86  TYR86       0.0417
     66  CE2       18.7240   58.9600   49.1990 C.ar   86  TYR86       0.0417
     67  CZ        19.9910   58.4730   48.9370 C.ar   86  TYR86       0.1957
     68  OH        20.1610   57.2900   48.2610 O.3    86  TYR86      -0.2866
     69  N         25.3000   62.4870   41.1640 N.3   114  LEU114     -0.1231
     70  CA        23.9550   62.4520   41.7460 C.3   114  LEU114      0.1693
     71  C         22.9890   61.5360   40.9950 C.2   114  LEU114      0.2592
     72  O         22.0920   61.9870   40.2750 O.2   114  LEU114     -0.2718
     73  CB        23.3830   63.8540   41.9360 C.3   114  LEU114      0.0284
     74  CG        23.7910   64.5450   43.2440 C.3   114  LEU114      0.0019
     75  CD1       25.2790   64.4650   43.4750 C.3   114  LEU114      0.0001
     76  CD2       23.3330   65.9790   43.2660 C.3   114  LEU114      0.0001
     77  N         23.2010   60.2350   41.1820 N.am  115  ALA115     -0.1966
     78  CA        22.3610   59.1920   40.6140 C.3   115  ALA115      0.1728
     79  C         21.1030   59.1220   41.4830 C.2   115  ALA115      0.2616
     80  O         20.7360   58.0480   41.9780 O.2   115  ALA115     -0.2715
     81  CB        23.1160   57.8410   40.6470 C.3   115  ALA115      0.0334
     82  N         20.4750   60.2770   41.7040 N.am  116  LEU116     -0.1964
     83  CA        19.2900   60.3500   42.5480 C.3   116  LEU116      0.1713
     84  C         18.1160   61.0570   41.8620 C.2   116  LEU116      0.2458
     85  O         18.3040   61.7480   40.8670 O.2   116  LEU116     -0.2730
     86  CB        19.6380   61.0790   43.8400 C.3   116  LEU116      0.0310
     87  CG        20.6810   60.4260   44.7390 C.3   116  LEU116      0.0022
     88  CD1       21.2960   61.4710   45.6300 C.3   116  LEU116      0.0001
     89  CD2       20.0670   59.3100   45.5710 C.3   116  LEU116      0.0001
     90  N         16.9110   60.8990   42.4210 N.am  117  PRO117     -0.2716
     91  CA        15.7340   61.6270   41.9350 C.3   117  PRO117      0.1521
     92  C         15.9110   63.1200   42.2480 C.2   117  PRO117      0.2440
     93  O         16.6490   63.4860   43.1710 O.2   117  PRO117     -0.2731
     94  CB        14.5930   61.0540   42.7940 C.3   117  PRO117      0.0310
     95  CG        15.2380   60.6750   44.0610 C.3   117  PRO117      0.0237
     96  CD        16.6400   60.2120   43.7030 C.3   117  PRO117      0.0939
     97  N         15.2240   63.9650   41.4850 N.am  118  PRO118     -0.2716
     98  CA        15.3280   65.4240   41.6160 C.3   118  PRO118      0.1536
     99  C         14.9610   65.9790   42.9940 C.2   118  PRO118      0.2599
    100  O         15.3040   67.1220   43.3110 O.2   118  PRO118     -0.2715
    101  CB        14.3070   65.9470   40.5920 C.3   118  PRO118      0.0310
    102  CG        13.9110   64.7770   39.7750 C.3   118  PRO118      0.0237
    103  CD        14.1070   63.5710   40.6240 C.3   118  PRO118      0.0939
    104  N         14.2200   65.1890   43.7760 N.am  119  THR119     -0.1937
    105  CA        13.6980   65.6350   45.0670 C.3   119  THR119      0.2028
    106  C         14.6810   65.6780   46.2200 C.2   119  THR119      0.2642
    107  O         14.3490   66.1600   47.2940 O.2   119  THR119     -0.2714
    108  CB        12.3950   64.8980   45.4600 C.3   119  THR119      0.1808
    109  OG1       12.5710   63.4820   45.3200 O.3   119  THR119     -0.2208
    110  CG2       11.2570   65.3280   44.5350 C.3   119  THR119      0.0379
    111  N         15.9160   65.2490   45.9780 N.am  120  VAL120     -0.1963
    112  CA        16.9550   65.3190   47.0100 C.3   120  VAL120      0.1727
    113  C         18.0600   66.3070   46.6330 C.2   120  VAL120      0.2616
    114  O         18.9080   66.6540   47.4630 O.2   120  VAL120     -0.2715
    115  CB        17.5810   63.9300   47.3410 C.3   120  VAL120      0.0290
    116  CG1       16.6650   63.1260   48.2070 C.3   120  VAL120      0.0023
    117  CG2       17.9220   63.1590   46.0830 C.3   120  VAL120      0.0023
    118  N         18.0270   66.7760   45.3930 N.am  121  TYR121     -0.1974
    119  CA        19.0460   67.6800   44.8720 C.3   121  TYR121      0.1639
    120  C         19.4810   68.8040   45.8360 C.2   121  TYR121      0.2290
    121  O         20.6730   69.0830   45.9770 O.2   121  TYR121     -0.2864
    122  CB        18.6360   68.2550   43.4990 C.3   121  TYR121      0.0560
    123  CG        18.5270   67.2420   42.3470 C.ar  121  TYR121     -0.0198
    124  CD1       18.9610   65.9200   42.4910 C.ar  121  TYR121     -0.0009
    125  CD2       18.0120   67.6340   41.0980 C.ar  121  TYR121     -0.0009
    126  CE1       18.8400   65.0020   41.4430 C.ar  121  TYR121      0.0417
    127  CE2       17.8710   66.7280   40.0610 C.ar  121  TYR121      0.0417
    128  CZ        18.2950   65.4160   40.2260 C.ar  121  TYR121      0.1957
    129  OH        18.1330   64.5210   39.1740 O.3   121  TYR121     -0.2866
    130  N         21.7770   65.3110   36.9360 N.3   144  GLU144     -0.1231
    131  CA        20.9180   64.8010   35.8840 C.3   144  GLU144      0.1699
    132  C         19.5990   65.5720   35.7510 C.2   144  GLU144      0.2592
    133  O         19.1110   66.1680   36.7110 O.2   144  GLU144     -0.2718
    134  CB        20.6360   63.3070   36.1260 C.3   144  GLU144      0.0402
    135  CG        21.8560   62.3990   35.9320 C.3   144  GLU144      0.1161
    136  CD        22.0700   61.9940   34.4780 C.2   144  GLU144      0.3649
    137  OE1       21.4670   62.6270   33.5850 O.co2 144  GLU144     -0.2457
    138  OE2       22.8260   61.0330   34.2290 O.co2 144  GLU144     -0.2457
    139  N         19.0190   65.5290   34.5540 N.am  145  LYS145     -0.1966
    140  CA        17.7070   66.0880   34.3150 C.3   145  LYS145      0.1713
    141  C         16.7790   65.2320   35.1670 C.2   145  LYS145      0.2458
    142  O         17.0440   64.0400   35.3570 O.2   145  LYS145     -0.2730
    143  CB        17.3380   65.9000   32.8480 C.3   145  LYS145      0.0311
    144  CG        17.7800   67.0200   31.9210 C.3   145  LYS145      0.0038
    145  CD        17.1750   66.8360   30.5210 C.3   145  LYS145      0.0206
    146  CE        17.3320   65.4070   30.0090 C.3   145  LYS145      0.1093
    147  NZ        16.2520   65.0810   29.0610 N.3   145  LYS145     -0.1314
    148  N         15.7360   65.8300   35.7370 N.am  146  PRO146     -0.2727
    149  CA        15.3400   67.2140   35.4530 C.3   146  PRO146      0.1402
    150  C         15.9810   68.2940   36.3100 C.2   146  PRO146      0.2269
    151  O         16.0630   68.1810   37.5280 O.2   146  PRO146     -0.2865
    152  CB        13.8370   67.2030   35.7560 C.3   146  PRO146      0.0296
    153  CG        13.7100   66.1930   36.8750 C.3   146  PRO146      0.0237
    154  CD        14.7420   65.1220   36.5750 C.3   146  PRO146      0.0939
    155  N         28.1560   58.3980   28.0670 N.3   411  TYR411     -0.1241
    156  CA        28.5160   58.4280   29.5080 C.3   411  TYR411      0.1605
    157  C         29.9980   58.1880   29.7850 C.2   411  TYR411      0.2264
    158  O         30.5300   58.6410   30.8040 O.2   411  TYR411     -0.2867
    159  CB        27.6660   57.4500   30.3380 C.3   411  TYR411      0.0534
    160  CG        26.3260   57.9970   30.7560 C.ar  411  TYR411     -0.0201
    161  CD1       26.2370   59.1240   31.5480 C.ar  411  TYR411     -0.0009
    162  CD2       25.1420   57.4500   30.2590 C.ar  411  TYR411     -0.0009
    163  CE1       25.0090   59.6670   31.8930 C.ar  411  TYR411      0.0417
    164  CE2       23.9010   57.9820   30.5980 C.ar  411  TYR411      0.0417
    165  CZ        23.8420   59.0890   31.4230 C.ar  411  TYR411      0.1957
    166  OH        22.6210   59.6150   31.7890 O.3   411  TYR411     -0.2866
@<TRIPOS>BOND
     1   155   156    1
     2   147   146    1
     3   156   157    1
     4   156   159    1
     5   157   158    2
     6   146   145    1
     7   162   164   ar
     8   162   160   ar
     9   159   160    1
    10   145   144    1
    11   164   165   ar
    12   160   161   ar
    13    39    38    1
    14    37    38    1
    15    37    36    1
    16   165   166    1
    17   165   163   ar
    18   161   163   ar
    19   144   143    1
    20    36    35    1
    21   143   140    1
    22    35    32    1
    23   137   136   ar
    24    34    33    2
    25    32    33    1
    26    32    31    1
    27   138   136   ar
    28   140   139    1
    29   140   141    1
    30   136   135    1
    31    29    28    1
    32   139   132   am
    33   141   142    2
    34   141   148   am
    35   149   148    1
    36   149   152    1
    37   149   150    1
    38   148   154    1
    39   132   131    1
    40   132   133    2
    41   152   153    1
    42   131   134    1
    43   131   130    1
    44    28    30    1
    45    28    27    1
    46   135   134    1
    47   150   151    2
    48    26    25    2
    49   154   153    1
    50    24    27    1
    51    24    25    1
    52    24    23    1
    53    18    17    2
    54    23    17   am
    55    17    16    1
    56    19    16    1
    57    19    20    1
    58    22    20   ar
    59    16    15    1
    60    20    21   ar
    61   129   128    1
    62   102   101    1
    63   102   103    1
    64    15    13   am
    65   127   128   ar
    66   127   125   ar
    67   128   126   ar
    68    72    71    2
    69   101    98    1
    70    78    81    1
    71    78    77    1
    72    78    79    1
    73    14    13    2
    74   103    97    1
    75    13    12    1
    76    85    84    2
    77    71    77   am
    78    71    70    1
    79   125   123   ar
    80    69    70    1
    81   126   124   ar
    82    79    82   am
    83    79    80    2
    84    97    98    1
    85    97    92   am
    86    98    99    1
    87    82    83    1
    88    70    73    1
    89    84    90   am
    90    84    83    1
    91    91    92    1
    92    91    90    1
    93    91    94    1
    94    73    74    1
    95    12    11    1
    96    92    93    2
    97   123   124   ar
    98   123   122    1
    99    90    96    1
   100    83    86    1
   101    94    95    1
   102    99   100    2
   103    99   104   am
   104    11     7   am
   105    74    76    1
   106    74    75    1
   107   122   119    1
   108     8     7    2
   109    96    95    1
   110   104   105    1
   111     7     6    1
   112    86    87    1
   113     4     3    2
   114   110   108    1
   115     3     2    1
   116    87    89    1
   117    87    88    1
   118   119   118    1
   119   119   120    1
   120     6     5    1
   121     6     9    1
   122   105   108    1
   123   105   106    1
   124     2     1    1
   125   109   108    1
   126   118   113   am
   127   120   121    2
   128   111   106   am
   129   111   112    1
   130   117   115    1
   131   106   107    2
   132     9    10    1
   133   113   112    1
   134   113   114    2
   135   112   115    1
   136   115   116    1
   137    68    67    1
   138    67    66   ar
   139    67    65   ar
   140    66    64   ar
   141    65    63   ar
   142    56    55    1
   143    64    62   ar
   144    63    62   ar
   145    62    61    1
   146    50    48    1
   147    55    52    1
   148    61    58    1
   149    40    41    1
   150    48    47    2
   151    48    49    1
   152    47    46    1
   153    51    52    1
   154    51    42   am
   155    52    53    1
   156    58    59    1
   157    58    57    1
   158    60    59    2
   159    54    53    2
   160    41    44    1
   161    41    42    1
   162    44    45    1
   163    45    46    1
   164    42    43    2
