@<TRIPOS>MOLECULE
tmp/2bheA00.pdb
 145 138 0 0 0
SMALL
GASTEIGER

@<TRIPOS>ATOM
      1  N         27.0380   11.9970    4.2270 N.3    10  ILE10      -0.1231
      2  CA        25.9000   11.7610    5.1110 C.3    10  ILE10       0.1692
      3  C         26.1980   12.0480    6.5730 C.2    10  ILE10       0.2592
      4  O         25.3280   11.8790    7.4300 O.2    10  ILE10      -0.2718
      5  CB        25.4370   10.2940    4.9920 C.3    10  ILE10       0.0266
      6  CG1       26.5830    9.2820    5.0360 C.3    10  ILE10       0.0019
      7  CG2       24.5840   10.1140    3.7450 C.3    10  ILE10       0.0020
      8  CD1       26.1880    7.8870    4.5900 C.3    10  ILE10       0.0001
      9  N         27.4250   12.4720    6.8630 N.am   11  GLY11      -0.1957
     10  CA        27.8310   12.7170    8.2300 C.3    11  GLY11       0.1869
     11  C         29.2110   13.3270    8.3680 C.2    11  GLY11       0.2309
     12  O         30.0880   13.1370    7.5260 O.2    11  GLY11      -0.2863
     13  N         31.9290   11.0240    6.8590 N.3    18  VAL18      -0.1245
     14  CA        31.3080    9.8130    6.3080 C.3    18  VAL18       0.1561
     15  C         30.5820   10.1140    5.0020 C.2    18  VAL18       0.2260
     16  O         29.8510   11.0950    4.8870 O.2    18  VAL18      -0.2867
     17  CB        30.3780    9.1670    7.3480 C.3    18  VAL18       0.0252
     18  CG1       29.9280    7.7710    6.9500 C.3    18  VAL18       0.0019
     19  CG2       31.0960    9.1020    8.6940 C.3    18  VAL18       0.0019
     20  N         28.8140    2.9150    3.2360 N.3    31  ALA31      -0.1245
     21  CA        29.1260    4.1080    3.9980 C.3    31  ALA31       0.1562
     22  C         30.6460    4.1550    4.1530 C.2    31  ALA31       0.2260
     23  O         31.2140    3.2330    4.7520 O.2    31  ALA31      -0.2867
     24  CB        28.4310    4.1010    5.3530 C.3    31  ALA31       0.0290
     25  N         33.8810    5.9620    5.7340 N.3    33  LYS33      -0.1245
     26  CA        34.4190    6.8670    6.7420 C.3    33  LYS33       0.1561
     27  C         35.8930    7.1580    6.4770 C.2    33  LYS33       0.2260
     28  O         36.7630    6.2950    6.6160 O.2    33  LYS33      -0.2867
     29  CB        34.2150    6.2540    8.1270 C.3    33  LYS33       0.0271
     30  CG        34.7200    7.0870    9.2900 C.3    33  LYS33       0.0035
     31  CD        33.9570    6.7580   10.5670 C.3    33  LYS33       0.0206
     32  CE        34.2820    7.7760   11.6550 C.3    33  LYS33       0.1093
     33  NZ        35.4770    7.3410   12.4360 N.3    33  LYS33      -0.1314
     34  N         26.1360   -2.4690   12.9210 N.3    55  VAL55      -0.1245
     35  CA        26.5650   -2.0940   11.5690 C.3    55  VAL55       0.1561
     36  C         27.8240   -2.8750   11.2350 C.2    55  VAL55       0.2260
     37  O         28.8060   -2.8390   11.9810 O.2    55  VAL55      -0.2867
     38  CB        26.7990   -0.5810   11.4730 C.3    55  VAL55       0.0252
     39  CG1       27.2930   -0.1420   10.1010 C.3    55  VAL55       0.0019
     40  CG2       25.5050    0.1550   11.8080 C.3    55  VAL55       0.0019
     41  N         31.8270    0.5460    5.8050 N.3    71  PHE71      -0.1227
     42  CA        30.7210   -0.0420    6.5380 C.3    71  PHE71       0.1736
     43  C         29.4900   -0.3590    5.6920 C.2    71  PHE71       0.2595
     44  O         29.2460    0.2520    4.6500 O.2    71  PHE71      -0.2718
     45  CB        30.2310    0.9410    7.6100 C.3    71  PHE71       0.0547
     46  CG        31.3210    1.3510    8.5810 C.ar   71  PHE71      -0.0202
     47  CD1       31.5930    0.5620    9.6820 C.ar   71  PHE71      -0.0042
     48  CD2       32.0390    2.5040    8.3460 C.ar   71  PHE71      -0.0042
     49  CE1       32.5930    0.9300   10.5660 C.ar   71  PHE71      -0.0003
     50  CE2       33.0300    2.8740    9.2330 C.ar   71  PHE71      -0.0003
     51  CZ        33.3100    2.0880   10.3280 C.ar   71  PHE71      -0.0000
     52  N         28.7130   -1.3020    6.2090 N.am   72  GLU72      -0.1965
     53  CA        27.3900   -1.5310    5.6220 C.3    72  GLU72       0.1733
     54  C         26.6530   -0.2040    5.7170 C.2    72  GLU72       0.2616
     55  O         26.9320    0.5480    6.6680 O.2    72  GLU72      -0.2715
     56  CB        26.6870   -2.6750    6.3400 C.3    72  GLU72       0.0429
     57  CG        25.3620   -2.3060    6.9800 C.3    72  GLU72       0.1163
     58  CD        24.7610   -3.4150    7.8150 C.2    72  GLU72       0.3649
     59  OE1       23.6190   -3.8260    7.5110 O.co2  72  GLU72      -0.2457
     60  OE2       25.3970   -3.8920    8.7800 O.co2  72  GLU72      -0.2457
     61  N         25.7740    0.0970    4.7760 N.am   73  PHE73      -0.1960
     62  CA        25.0190    1.3430    4.7190 C.3    73  PHE73       0.1771
     63  C         23.5490    1.1580    5.1000 C.2    73  PHE73       0.2619
     64  O         22.9090    0.1800    4.6990 O.2    73  PHE73      -0.2715
     65  CB        25.1340    1.9210    3.2990 C.3    73  PHE73       0.0574
     66  CG        24.1890    3.0510    2.9580 C.ar   73  PHE73      -0.0200
     67  CD1       24.5300    4.3530    3.2670 C.ar   73  PHE73      -0.0042
     68  CD2       22.9750    2.8180    2.3220 C.ar   73  PHE73      -0.0042
     69  CE1       23.6820    5.4060    2.9850 C.ar   73  PHE73      -0.0003
     70  CE2       22.1110    3.8570    2.0600 C.ar   73  PHE73      -0.0003
     71  CZ        22.4640    5.1520    2.3810 C.ar   73  PHE73      -0.0000
     72  N         23.0090    2.1120    5.8440 N.am   74  LEU74      -0.1963
     73  CA        21.6070    2.1520    6.2480 C.3    74  LEU74       0.1728
     74  C         21.0480    3.5180    5.8840 C.2    74  LEU74       0.2616
     75  O         21.7990    4.4950    5.9480 O.2    74  LEU74      -0.2715
     76  CB        21.4180    1.8920    7.7380 C.3    74  LEU74       0.0311
     77  CG        21.3950    0.4220    8.1710 C.3    74  LEU74       0.0022
     78  CD1       20.7810   -0.4480    7.0870 C.3    74  LEU74       0.0001
     79  CD2       22.7960   -0.0500    8.5150 C.3    74  LEU74       0.0001
     80  N         19.7810    3.6320    5.4880 N.am   75  HIS75      -0.1959
     81  CA        19.3600    4.9140    4.9290 C.3    75  HIS75       0.1787
     82  C         19.0260    5.9800    5.9410 C.2    75  HIS75       0.2620
     83  O         18.9440    7.1620    5.5770 O.2    75  HIS75      -0.2715
     84  CB        18.1220    4.7080    4.0330 C.3    75  HIS75       0.0785
     85  CG        18.4520    4.0410    2.7340 C.ar   75  HIS75       0.0821
     86  ND1       18.7460    2.6960    2.6510 N.ar   75  HIS75      -0.2267
     87  CD2       18.5210    4.5380    1.4770 C.ar   75  HIS75       0.1154
     88  CE1       18.9850    2.3890    1.3880 C.ar   75  HIS75       0.1986
     89  NE2       18.8580    3.4840    0.6580 N.ar   75  HIS75      -0.2212
     90  N         18.8050    5.6470    7.2110 N.am   76  GLN76      -0.1963
     91  CA        18.3410    6.7330    8.0820 C.3    76  GLN76       0.1733
     92  C         18.9110    6.6150    9.4840 C.2    76  GLN76       0.2616
     93  O         19.2600    5.5020    9.8920 O.2    76  GLN76      -0.2715
     94  CB        16.8040    6.6940    8.1170 C.3    76  GLN76       0.0408
     95  CG        16.2300    7.8710    8.8960 C.3    76  GLN76       0.0908
     96  CD        14.8460    8.2720    8.4250 C.2    76  GLN76       0.2608
     97  OE1       13.9090    8.3160    9.2250 O.2    76  GLN76      -0.2717
     98  NE2       14.7060    8.5650    7.1370 N.am   76  GLN76      -0.0878
     99  N         19.0210    7.7040   10.2370 N.am   77  ASP77      -0.1971
    100  CA        19.4720    7.5230   11.6280 C.3    77  ASP77       0.1709
    101  C         18.3330    7.8340   12.5980 C.2    77  ASP77       0.2293
    102  O         17.3400    8.4470   12.2110 O.2    77  ASP77      -0.2864
    103  CB        20.6850    8.3660   11.9800 C.3    77  ASP77       0.1436
    104  CG        20.4830    9.8590   11.9490 C.2    77  ASP77       0.3671
    105  OD1       19.4290   10.3890   12.3600 O.co2  77  ASP77      -0.2456
    106  OD2       21.4380   10.5400   11.5110 O.co2  77  ASP77      -0.2456
    107  N         17.1610   11.6000   12.9790 N.3    80  LYS80      -0.1245
    108  CA        16.2460   12.1660   11.9810 C.3    80  LYS80       0.1561
    109  C         14.8540   11.5700   12.1440 C.2    80  LYS80       0.2260
    110  O         13.8300   12.2230   11.9760 O.2    80  LYS80      -0.2867
    111  CB        16.7920   11.9030   10.5730 C.3    80  LYS80       0.0271
    112  CG        15.7230   12.0200    9.4930 C.3    80  LYS80       0.0035
    113  CD        15.5960   13.4460    8.9820 C.3    80  LYS80       0.0206
    114  CE        14.1500   13.8150    8.6910 C.3    80  LYS80       0.1093
    115  NZ        13.9550   14.2120    7.2680 N.3    80  LYS80      -0.1314
    116  N         22.3840    9.8310   16.6970 N.3   122  GLN122     -0.1245
    117  CA        23.0240    9.9400   15.3850 C.3   122  GLN122      0.1566
    118  C         23.7470    8.6530   15.0190 C.2   122  GLN122      0.2260
    119  O         23.9170    8.3490   13.8410 O.2   122  GLN122     -0.2867
    120  CB        24.0170   11.1050   15.3710 C.3   122  GLN122      0.0367
    121  CG        23.4100   12.4440   15.7470 C.3   122  GLN122      0.0905
    122  CD        23.4990   12.7110   17.2390 C.2   122  GLN122      0.2608
    123  OE1       22.5720   12.4110   17.9910 O.2   122  GLN122     -0.2717
    124  NE2       24.6200   13.2790   17.6680 N.am  122  GLN122     -0.0878
    125  N         21.2030    3.4420   13.5940 N.3   125  LEU125     -0.1245
    126  CA        20.7410    3.4410   12.2130 C.3   125  LEU125      0.1561
    127  C         19.5720    2.4920   11.9980 C.2   125  LEU125      0.2260
    128  O         19.5330    1.3670   12.4770 O.2   125  LEU125     -0.2867
    129  CB        21.8820    3.0440   11.2610 C.3   125  LEU125      0.0270
    130  CG        23.0970    3.9730   11.2810 C.3   125  LEU125      0.0019
    131  CD1       24.1750    3.4170   10.3680 C.3   125  LEU125      0.0001
    132  CD2       22.7330    5.3970   10.8920 C.3   125  LEU125      0.0001
    133  N         26.1050    1.9870   15.4890 N.3   135  ALA135     -0.1231
    134  CA        27.1260    2.3520   14.5210 C.3   135  ALA135      0.1694
    135  C         28.2930    3.0740   15.1800 C.2   135  ALA135      0.2592
    136  O         28.1220    3.6310   16.2630 O.2   135  ALA135     -0.2718
    137  CB        26.5440    3.2670   13.4480 C.3   135  ALA135      0.0304
    138  N         29.4250    3.0740   14.4930 N.am  136  ASP136     -0.1974
    139  CA        30.5170    3.9810   14.7960 C.3   136  ASP136      0.1709
    140  C         31.0010    3.9250   16.2430 C.2   136  ASP136      0.2293
    141  O         31.0150    4.9600   16.9070 O.2   136  ASP136     -0.2864
    142  CB        30.0940    5.4300   14.5050 C.3   136  ASP136      0.1436
    143  CG        31.2900    6.3380   14.3110 C.2   136  ASP136      0.3671
    144  OD1       32.4190    5.8040   14.2890 O.co2 136  ASP136     -0.2456
    145  OD2       31.1050    7.5680   14.1810 O.co2 136  ASP136     -0.2456
@<TRIPOS>BOND
     1    89    88   ar
     2    89    87   ar
     3    88    86   ar
     4    87    85   ar
     5    70    68   ar
     6    70    71   ar
     7    68    66   ar
     8    71    69   ar
     9    86    85   ar
    10    85    84    1
    11    66    67   ar
    12    66    65    1
    13    69    67   ar
    14    20    21    1
    15    65    62    1
    16     7     5    1
    17    21    22    1
    18    21    24    1
    19    84    81    1
    20    22    23    2
    21     1     2    1
    22     8     6    1
    23    44    43    2
    24    64    63    2
    25    62    61    1
    26    62    63    1
    27    61    54   am
    28    16    15    2
    29    81    80    1
    30    81    82    1
    31     5     6    1
    32     5     2    1
    33    15    14    1
    34    63    72   am
    35     2     3    1
    36    80    74   am
    37    83    82    2
    38    53    54    1
    39    53    52    1
    40    53    56    1
    41    43    52   am
    42    43    42    1
    43    54    55    2
    44    25    26    1
    45    41    42    1
    46    72    73    1
    47    74    75    2
    48    74    73    1
    49    82    90   am
    50    73    76    1
    51    14    13    1
    52    14    17    1
    53    56    57    1
    54    27    28    2
    55    27    26    1
    56    42    45    1
    57     3     9   am
    58     3     4    2
    59    26    29    1
    60     9    10    1
    61    18    17    1
    62    57    58    1
    63    78    77    1
    64    98    96   am
    65    90    91    1
    66   115   114    1
    67    17    19    1
    68    59    58   ar
    69    12    11    2
    70    45    46    1
    71    76    77    1
    72    58    60   ar
    73    91    94    1
    74    91    92    1
    75    94    95    1
    76    29    30    1
    77    77    79    1
    78    10    11    1
    79    48    46   ar
    80    48    50   ar
    81    96    95    1
    82    96    97    2
    83    46    47   ar
    84   114   113    1
    85   113   112    1
    86    50    51   ar
    87    30    31    1
    88    92    93    2
    89    92    99   am
    90   112   111    1
    91    47    49   ar
    92    39    38    1
    93    99   100    1
    94    51    49   ar
    95   131   130    1
    96    31    32    1
    97   111   108    1
    98   132   130    1
    99    36    35    1
   100    36    37    2
   101   129   130    1
   102   129   126    1
   103    38    35    1
   104    38    40    1
   105   106   104   ar
   106    35    34    1
   107   100   103    1
   108   100   101    1
   109    32    33    1
   110   104   103    1
   111   104   105   ar
   112   110   109    2
   113   108   109    1
   114   108   107    1
   115   127   126    1
   116   127   128    2
   117   102   101    2
   118   126   125    1
   119   137   134    1
   120   119   118    2
   121   145   143   ar
   122   144   143   ar
   123   143   142    1
   124   138   139    1
   125   138   135   am
   126   142   139    1
   127   134   135    1
   128   134   133    1
   129   139   140    1
   130   118   117    1
   131   135   136    2
   132   120   117    1
   133   120   121    1
   134   117   116    1
   135   121   122    1
   136   140   141    2
   137   122   124   am
   138   122   123    2
