@<TRIPOS>MOLECULE
tmp/2bhhA00.pdb
 182 174 0 0 0
SMALL
GASTEIGER

@<TRIPOS>ATOM
      1  N         -0.2600   21.7340    2.4580 N.3    10  ILE10      -0.1231
      2  CA         0.9180   21.9830    3.2710 C.3    10  ILE10       0.1692
      3  C          0.7380   21.7250    4.7610 C.2    10  ILE10       0.2593
      4  O          1.6680   21.9160    5.5430 O.2    10  ILE10      -0.2718
      5  CB         1.4240   23.4190    3.0740 C.3    10  ILE10       0.0266
      6  CG1        0.3390   24.4190    3.4810 C.3    10  ILE10       0.0019
      7  CG2        1.8330   23.6280    1.6190 C.3    10  ILE10       0.0020
      8  CD1        0.7740   25.8590    3.4260 C.3    10  ILE10       0.0001
      9  N         -0.4440   21.2760    5.1610 N.am   11  GLY11      -0.1942
     10  CA        -0.5850   20.7660    6.5070 C.3    11  GLY11       0.2014
     11  C         -2.0130   20.7030    6.9800 C.2    11  GLY11       0.2639
     12  O         -2.9460   20.9420    6.2240 O.2    11  GLY11      -0.2714
     13  N         -2.1660   20.3850    8.2560 N.am   12  GLU12      -0.1963
     14  CA        -3.4640   20.2670    8.8960 C.3    12  GLU12       0.1733
     15  C         -3.1880   20.1230   10.3900 C.2    12  GLU12       0.2617
     16  O         -2.0400   20.2180   10.8170 O.2    12  GLU12      -0.2715
     17  CB        -4.2330   19.0620    8.3050 C.3    12  GLU12       0.0429
     18  CG        -4.6650   17.9350    9.2550 C.3    12  GLU12       0.1163
     19  CD        -3.5500   16.9600    9.5870 C.2    12  GLU12       0.3649
     20  OE1       -3.0140   16.3300    8.6480 O.co2  12  GLU12      -0.2457
     21  OE2       -3.2280   16.8070   10.7860 O.co2  12  GLU12      -0.2457
     22  N         -4.2290   19.9370   11.1880 N.am   13  GLY13      -0.1940
     23  CA        -4.8350   21.0400   11.8960 C.3    13  GLY13       0.2014
     24  C         -6.0070   20.4630   12.6440 C.2    13  GLY13       0.2639
     25  O         -6.5370   19.4220   12.2560 O.2    13  GLY13      -0.2714
     26  N         -6.3920   21.1110   13.7330 N.am   14  THR14      -0.1950
     27  CA        -7.5130   20.6380   14.5320 C.3    14  THR14       0.1897
     28  C         -8.8470   21.0350   13.9080 C.2    14  THR14       0.2313
     29  O         -9.9030   20.5480   14.3140 O.2    14  THR14      -0.2863
     30  CB        -7.4350   21.1920   15.9700 C.3    14  THR14       0.1794
     31  OG1       -6.9970   22.5580   15.9320 O.3    14  THR14      -0.2208
     32  CG2       -6.4710   20.3680   16.8100 C.3    14  THR14       0.0378
     33  N         -4.7820   22.8840    5.4750 N.3    18  VAL18      -0.1245
     34  CA        -4.2470   24.1020    4.8880 C.3    18  VAL18       0.1561
     35  C         -3.5480   23.8300    3.5730 C.2    18  VAL18       0.2260
     36  O         -2.6940   22.9540    3.4780 O.2    18  VAL18      -0.2867
     37  CB        -3.2650   24.8000    5.8480 C.3    18  VAL18       0.0252
     38  CG1       -2.6530   26.0120    5.1840 C.3    18  VAL18       0.0019
     39  CG2       -3.9870   25.2090    7.1080 C.3    18  VAL18       0.0019
     40  N         -2.2110   30.9690    2.0670 N.3    31  ALA31      -0.1245
     41  CA        -2.3170   29.7100    2.7850 C.3    31  ALA31       0.1562
     42  C         -3.8190   29.5420    2.9030 C.2    31  ALA31       0.2260
     43  O         -4.4810   30.2640    3.6500 O.2    31  ALA31      -0.2867
     44  CB        -1.6850   29.8260    4.1500 C.3    31  ALA31       0.0290
     45  N         -6.8930   27.6990    4.1160 N.3    33  LYS33      -0.1245
     46  CA        -7.4110   26.7260    5.0640 C.3    33  LYS33       0.1561
     47  C         -8.8720   26.4150    4.7930 C.2    33  LYS33       0.2260
     48  O         -9.6590   27.3100    4.4900 O.2    33  LYS33      -0.2867
     49  CB        -7.2640   27.2290    6.5040 C.3    33  LYS33       0.0271
     50  CG        -7.8960   26.3010    7.5300 C.3    33  LYS33       0.0035
     51  CD        -7.4550   26.6210    8.9440 C.3    33  LYS33       0.0206
     52  CE        -6.5580   25.5220    9.4930 C.3    33  LYS33       0.1093
     53  NZ        -6.6280   25.4260   10.9810 N.3    33  LYS33      -0.1314
     54  N          0.2000   36.4000   11.8150 N.3    55  VAL55      -0.1245
     55  CA        -0.0150   36.0110   10.4350 C.3    55  VAL55       0.1561
     56  C         -1.2690   36.7640   10.0240 C.2    55  VAL55       0.2260
     57  O         -2.1730   36.9590   10.8400 O.2    55  VAL55      -0.2867
     58  CB        -0.1860   34.4880   10.3040 C.3    55  VAL55       0.0252
     59  CG1       -0.5330   34.1090    8.8850 C.3    55  VAL55       0.0019
     60  CG2        1.0960   33.8220   10.6730 C.3    55  VAL55       0.0019
     61  N         -5.2860   33.0520    4.4470 N.3    71  PHE71      -0.1227
     62  CA        -4.2170   33.6080    5.2680 C.3    71  PHE71       0.1736
     63  C         -3.0110   33.9920    4.4530 C.2    71  PHE71       0.2595
     64  O         -2.8120   33.4720    3.3610 O.2    71  PHE71      -0.2718
     65  CB        -3.7340   32.5680    6.2850 C.3    71  PHE71       0.0547
     66  CG        -4.6490   32.3680    7.4400 C.ar   71  PHE71      -0.0202
     67  CD1       -4.8820   33.3970    8.3360 C.ar   71  PHE71      -0.0042
     68  CD2       -5.2360   31.1300    7.6680 C.ar   71  PHE71      -0.0042
     69  CE1       -5.6770   33.2060    9.4500 C.ar   71  PHE71      -0.0003
     70  CE2       -6.0400   30.9230    8.7890 C.ar   71  PHE71      -0.0003
     71  CZ        -6.2580   31.9660    9.6810 C.ar   71  PHE71      -0.0000
     72  N         -2.1770   34.8650    5.0170 N.am   72  GLU72      -0.1965
     73  CA        -0.9520   35.2450    4.3460 C.3    72  GLU72       0.1733
     74  C         -0.0940   33.9720    4.3730 C.2    72  GLU72       0.2616
     75  O         -0.2950   33.1020    5.2090 O.2    72  GLU72      -0.2715
     76  CB        -0.2590   36.4280    5.0410 C.3    72  GLU72       0.0429
     77  CG         0.5010   36.1220    6.3090 C.3    72  GLU72       0.1163
     78  CD         1.4460   37.2490    6.7130 C.2    72  GLU72       0.3649
     79  OE1        2.6320   37.1910    6.3330 O.co2  72  GLU72      -0.2457
     80  OE2        1.0240   38.1900    7.4170 O.co2  72  GLU72      -0.2457
     81  N          0.8160   33.8370    3.4230 N.am   73  PHE73      -0.1960
     82  CA         1.6440   32.6440    3.3420 C.3    73  PHE73       0.1771
     83  C          3.0840   32.8280    3.8060 C.2    73  PHE73       0.2619
     84  O          3.7940   33.7260    3.3440 O.2    73  PHE73      -0.2715
     85  CB         1.6260   32.1220    1.9040 C.3    73  PHE73       0.0574
     86  CG         2.4400   30.8930    1.6920 C.ar   73  PHE73      -0.0200
     87  CD1        1.8660   29.6410    1.8290 C.ar   73  PHE73      -0.0042
     88  CD2        3.7820   30.9880    1.3390 C.ar   73  PHE73      -0.0042
     89  CE1        2.6110   28.4930    1.6160 C.ar   73  PHE73      -0.0003
     90  CE2        4.5370   29.8540    1.1220 C.ar   73  PHE73      -0.0003
     91  CZ         3.9530   28.5950    1.2600 C.ar   73  PHE73      -0.0000
     92  N          3.4870   31.9840    4.7530 N.am   74  LEU74      -0.1963
     93  CA         4.8500   31.9680    5.2790 C.3    74  LEU74       0.1728
     94  C          5.3380   30.5780    4.9100 C.2    74  LEU74       0.2616
     95  O          4.5850   29.6140    5.0060 O.2    74  LEU74      -0.2715
     96  CB         4.8820   32.1500    6.7980 C.3    74  LEU74       0.0311
     97  CG         4.7950   33.5450    7.4210 C.3    74  LEU74       0.0022
     98  CD1        5.9100   34.3780    6.9050 C.3    74  LEU74       0.0001
     99  CD2        3.4670   34.2070    7.1610 C.3    74  LEU74       0.0001
    100  N          6.5880   30.4900    4.4790 N.am   75  HIS75      -0.1959
    101  CA         7.1780   29.2390    4.0340 C.3    75  HIS75       0.1787
    102  C          7.4770   28.1610    5.0540 C.2    75  HIS75       0.2620
    103  O          7.3800   26.9800    4.7400 O.2    75  HIS75      -0.2715
    104  CB         8.4510   29.5170    3.2350 C.3    75  HIS75       0.0785
    105  CG         8.2000   30.0260    1.8500 C.ar   75  HIS75       0.0821
    106  ND1        8.0190   31.3630    1.5680 N.ar   75  HIS75      -0.2267
    107  CD2        8.1040   29.3760    0.6660 C.ar   75  HIS75       0.1154
    108  CE1        7.8200   31.5130    0.2700 C.ar   75  HIS75       0.1986
    109  NE2        7.8670   30.3240   -0.3000 N.ar   75  HIS75      -0.2212
    110  N          7.7980   28.5370    6.2800 N.am   76  GLN76      -0.1963
    111  CA         8.1510   27.5240    7.2630 C.3    76  GLN76       0.1733
    112  C          7.5330   27.7270    8.6460 C.2    76  GLN76       0.2616
    113  O          7.2090   28.8410    9.0200 O.2    76  GLN76      -0.2715
    114  CB         9.6810   27.4930    7.3690 C.3    76  GLN76       0.0408
    115  CG        10.2470   26.2990    8.0960 C.3    76  GLN76       0.0908
    116  CD         9.8750   25.0090    7.4230 C.2    76  GLN76       0.2608
    117  OE1       10.5690   24.5500    6.5130 O.2    76  GLN76      -0.2717
    118  NE2        8.7530   24.4250    7.8420 N.am   76  GLN76      -0.0878
    119  N          7.3350   26.6390    9.3860 N.am   77  ASP77      -0.1971
    120  CA         6.7990   26.7320   10.7500 C.3    77  ASP77       0.1709
    121  C          7.9590   26.5270   11.7310 C.2    77  ASP77       0.2293
    122  O          9.0150   26.0290   11.3450 O.2    77  ASP77      -0.2864
    123  CB         5.6840   25.6930   10.9930 C.3    77  ASP77       0.1436
    124  CG         6.1870   24.2440   10.9400 C.2    77  ASP77       0.3671
    125  OD1        7.2050   23.9240   11.5840 O.co2  77  ASP77      -0.2456
    126  OD2        5.5460   23.4150   10.2640 O.co2  77  ASP77      -0.2456
    127  N          9.0870   22.5980   12.4150 N.3    80  LYS80      -0.1245
    128  CA         9.9620   22.0430   11.3930 C.3    80  LYS80       0.1561
    129  C         11.3050   22.7690   11.4310 C.2    80  LYS80       0.2260
    130  O         12.3380   22.2010   11.0830 O.2    80  LYS80      -0.2867
    131  CB         9.3360   22.1460   10.0010 C.3    80  LYS80       0.0271
    132  CG        10.0650   21.2850    8.9610 C.3    80  LYS80       0.0035
    133  CD         9.6080   21.5590    7.5300 C.3    80  LYS80       0.0206
    134  CE        10.5920   20.9840    6.5200 C.3    80  LYS80       0.1093
    135  NZ        10.1530   21.2110    5.1140 N.3    80  LYS80      -0.1314
    136  N          1.5360   26.8420   19.8810 N.3   120  LYS120     -0.1245
    137  CA         2.4350   25.7220   19.6070 C.3   120  LYS120      0.1561
    138  C          3.4430   26.1250   18.5360 C.2   120  LYS120      0.2260
    139  O          3.2320   27.0750   17.7820 O.2   120  LYS120     -0.2867
    140  CB         1.6580   24.5260   19.0740 C.3   120  LYS120      0.0271
    141  CG         0.7690   23.8400   20.0480 C.3   120  LYS120      0.0035
    142  CD        -0.1090   22.8780   19.2990 C.3   120  LYS120      0.0206
    143  CE        -0.6860   23.5670   18.0720 C.3   120  LYS120      0.1093
    144  NZ        -2.0140   23.0230   17.7090 N.3   120  LYS120     -0.1314
    145  N          3.9190   24.8720   15.7870 N.3   122  GLN122     -0.1231
    146  CA         3.3260   24.7740   14.4560 C.3   122  GLN122      0.1698
    147  C          2.4810   25.9800   14.0700 C.2   122  GLN122      0.2592
    148  O          2.1700   26.1570   12.8990 O.2   122  GLN122     -0.2718
    149  CB         2.5100   23.4900   14.2930 C.3   122  GLN122      0.0381
    150  CG         3.1930   22.2500   14.8170 C.3   122  GLN122      0.0905
    151  CD         2.9160   22.0490   16.2880 C.2   122  GLN122      0.2608
    152  OE1        1.7660   22.1020   16.7130 O.2   122  GLN122     -0.2717
    153  NE2        3.9580   21.8320   17.0740 N.am  122  GLN122     -0.0878
    154  N          2.1120   26.8030   15.0490 N.am  123  ASN123     -0.1974
    155  CA         1.3180   28.0100   14.8050 C.3   123  ASN123      0.1688
    156  C          2.2210   29.2130   14.7170 C.2   123  ASN123      0.2292
    157  O          1.7600   30.3380   14.7020 O.2   123  ASN123     -0.2864
    158  CB         0.3690   28.2700   15.9560 C.3   123  ASN123      0.1181
    159  CG        -0.4760   27.1050   16.2630 C.2   123  ASN123      0.2629
    160  OD1       -0.9640   26.4230   15.3630 O.2   123  ASN123     -0.2716
    161  ND2       -0.6420   26.8330   17.5440 N.am  123  ASN123     -0.0877
    162  N          4.8400   30.7750   12.4720 N.3   125  LEU125     -0.1245
    163  CA         5.4170   30.7610   11.1290 C.3   125  LEU125      0.1561
    164  C          6.5200   31.7780   10.9570 C.2   125  LEU125      0.2260
    165  O          6.3940   32.9300   11.3790 O.2   125  LEU125     -0.2867
    166  CB         4.3430   31.0470   10.1010 C.3   125  LEU125      0.0270
    167  CG         3.1870   30.0620   10.1170 C.3   125  LEU125      0.0019
    168  CD1        2.1590   30.5330    9.1200 C.3   125  LEU125      0.0001
    169  CD2        3.7080   28.6630    9.7890 C.3   125  LEU125      0.0001
    170  N          0.3400   32.3490   14.0240 N.3   135  ALA135     -0.1231
    171  CA        -0.6760   31.8600   13.1150 C.3   135  ALA135      0.1694
    172  C         -1.8620   31.3150   13.8790 C.2   135  ALA135      0.2592
    173  O         -1.8400   31.2180   15.1070 O.2   135  ALA135     -0.2718
    174  CB        -0.1110   30.7820   12.2280 C.3   135  ALA135      0.0304
    175  N         -2.9140   31.0160   13.1280 N.am  136  ASP136     -0.1974
    176  CA        -4.1400   30.4280   13.6490 C.3   136  ASP136      0.1709
    177  C         -4.5420   30.8170   15.0680 C.2   136  ASP136      0.2293
    178  O         -4.3280   30.0540   16.0020 O.2   136  ASP136     -0.2864
    179  CB        -4.0170   28.9130   13.5560 C.3   136  ASP136      0.1436
    180  CG        -5.2280   28.2000   14.0880 C.2   136  ASP136      0.3671
    181  OD1       -6.3480   28.5510   13.6590 O.co2 136  ASP136     -0.2456
    182  OD2       -5.0610   27.2950   14.9350 O.co2 136  ASP136     -0.2456
@<TRIPOS>BOND
     1   109   108   ar
     2   109   107   ar
     3   108   106   ar
     4   107   105   ar
     5    90    91   ar
     6    90    88   ar
     7    91    89   ar
     8    88    86   ar
     9   106   105   ar
    10    89    87   ar
    11     7     5    1
    12    86    87   ar
    13    86    85    1
    14   105   104    1
    15    85    82    1
    16    40    41    1
    17     1     2    1
    18    41    42    1
    19    41    44    1
    20    42    43    2
    21     5     2    1
    22     5     6    1
    23   104   101    1
    24     2     3    1
    25    82    81    1
    26    82    83    1
    27    84    83    2
    28    64    63    2
    29    81    74   am
    30     8     6    1
    31    36    35    2
    32    35    34    1
    33    83    92   am
    34   101   100    1
    35   101   102    1
    36    45    46    1
    37    73    74    1
    38    73    72    1
    39    73    76    1
    40    74    75    2
    41    61    62    1
    42    63    72   am
    43    63    62    1
    44   100    94   am
    45    48    47    2
    46   103   102    2
    47    92    93    1
    48     3     9   am
    49     3     4    2
    50    47    46    1
    51    34    33    1
    52    34    37    1
    53    94    95    2
    54    94    93    1
    55    76    77    1
    56   102   110   am
    57    46    49    1
    58   135   134    1
    59     9    10    1
    60    38    37    1
    61    62    65    1
    62    93    96    1
    63    37    39    1
    64    12    11    2
    65   110   111    1
    66    65    66    1
    67    77    78    1
    68    79    78   ar
    69    49    50    1
    70    10    11    1
    71   117   116    2
    72   134   133    1
    73    78    80   ar
    74    96    97    1
    75    98    97    1
    76    11    13   am
    77    99    97    1
    78   111   114    1
    79   111   112    1
    80   114   115    1
    81   116   118   am
    82   116   115    1
    83    66    68   ar
    84    66    67   ar
    85   133   132    1
    86    50    51    1
    87    68    70   ar
    88    13    14    1
    89    17    14    1
    90    17    18    1
    91    67    69   ar
    92   112   113    2
    93   112   119   am
    94    20    19   ar
    95    70    71   ar
    96    59    58    1
    97    14    15    1
    98    51    52    1
    99   132   131    1
   100   168   167    1
   101    18    19    1
   102   119   120    1
   103    69    71   ar
   104    52    53    1
   105    19    21   ar
   106   169   167    1
   107   131   128    1
   108    56    55    1
   109    56    57    2
   110   166   167    1
   111   166   163    1
   112   126   124   ar
   113    58    55    1
   114    58    60    1
   115    15    16    2
   116    15    22   am
   117    55    54    1
   118   120   123    1
   119   120   121    1
   120   124   123    1
   121   124   125   ar
   122   164   163    1
   123   164   165    2
   124   130   129    2
   125   163   162    1
   126    22    23    1
   127   122   121    2
   128   128   129    1
   129   128   127    1
   130    23    24    1
   131   174   171    1
   132    25    24    2
   133    24    26   am
   134   148   147    2
   135   171   172    1
   136   171   170    1
   137   175   176    1
   138   175   172   am
   139   179   176    1
   140   179   180    1
   141   176   177    1
   142   181   180   ar
   143    26    27    1
   144   172   173    2
   145    28    29    2
   146    28    27    1
   147   147   146    1
   148   147   154   am
   149   180   182   ar
   150   149   146    1
   151   149   150    1
   152   146   145    1
   153    27    30    1
   154   157   156    2
   155   156   155    1
   156   155   154    1
   157   155   158    1
   158   150   151    1
   159   177   178    2
   160   160   159    2
   161    31    30    1
   162   158   159    1
   163    30    32    1
   164   159   161   am
   165   151   152    2
   166   151   153   am
   167   144   143    1
   168   139   138    2
   169   143   142    1
   170   138   137    1
   171   140   137    1
   172   140   141    1
   173   142   141    1
   174   137   136    1
