@<TRIPOS>MOLECULE
tmp/2bhiB04.pdb
 84 81 0 0 0
SMALL
GASTEIGER

@<TRIPOS>ATOM
      1  N         18.4560    7.4000   12.6740 N.3     6  LEU6       -0.1231
      2  CA        19.0420    7.5420   11.3330 C.3     6  LEU6        0.1693
      3  C         18.3910    8.6810   10.5270 C.2     6  LEU6        0.2592
      4  O         19.0920    9.5350    9.9850 O.2     6  LEU6       -0.2718
      5  CB        18.9490    6.1990   10.5700 C.3     6  LEU6        0.0284
      6  CG        19.6430    6.1390    9.2060 C.3     6  LEU6        0.0019
      7  CD1       21.1330    6.4000    9.3750 C.3     6  LEU6        0.0001
      8  CD2       19.4330    4.7790    8.5690 C.3     6  LEU6        0.0001
      9  N         17.0650    8.6840   10.4310 N.am    7  VAL7       -0.1966
     10  CA        16.3660    9.7640    9.7360 C.3     7  VAL7        0.1712
     11  C         16.0240   10.6370   10.9290 C.2     7  VAL7        0.2458
     12  O         15.0630   10.3770   11.6470 O.2     7  VAL7       -0.2730
     13  CB        15.0820    9.2780    9.0230 C.3     7  VAL7        0.0289
     14  CG1       14.3780   10.4580    8.3540 C.3     7  VAL7        0.0023
     15  CG2       15.4410    8.1990    7.9740 C.3     7  VAL7        0.0023
     16  N         16.8290   11.6880   11.1560 N.am    8  PRO8       -0.2727
     17  CA        16.6770   12.6240   12.2720 C.3     8  PRO8        0.1402
     18  C         15.3540   13.3550   12.4460 C.2     8  PRO8        0.2269
     19  O         15.2610   14.2970   13.2320 O.2     8  PRO8       -0.2865
     20  CB        17.8680   13.5540   12.0850 C.3     8  PRO8        0.0296
     21  CG        17.9620   13.6390   10.5960 C.3     8  PRO8        0.0237
     22  CD        17.7560   12.2190   10.1420 C.3     8  PRO8        0.0939
     23  N         26.5050    9.7890   16.2350 N.3    23  LYS23      -0.1245
     24  CA        26.2260    9.6090   14.8210 C.3    23  LYS23       0.1561
     25  C         27.5400    9.0440   14.2920 C.2    23  LYS23       0.2260
     26  O         28.6280    9.4040   14.7610 O.2    23  LYS23      -0.2867
     27  CB        25.8280   10.9070   14.1010 C.3    23  LYS23       0.0271
     28  CG        26.8000   12.0530   14.1460 C.3    23  LYS23       0.0035
     29  CD        26.1790   13.2410   13.4100 C.3    23  LYS23       0.0206
     30  CE        26.7890   14.5680   13.8200 C.3    23  LYS23       0.1093
     31  NZ        26.0680   15.7070   13.1600 N.3    23  LYS23      -0.1314
     32  N         29.9300    8.1690   10.8780 N.3    25  PHE25      -0.1241
     33  CA        30.2040    8.4300    9.4600 C.3    25  PHE25       0.1605
     34  C         31.2660    7.4410    9.0190 C.2    25  PHE25       0.2264
     35  O         32.1970    7.1560    9.7720 O.2    25  PHE25      -0.2867
     36  CB        30.8080    9.8250    9.2030 C.3    25  PHE25       0.0534
     37  CG        29.9210   10.9690    9.5630 C.ar   25  PHE25      -0.0203
     38  CD1       29.8680   11.4370   10.8680 C.ar   25  PHE25      -0.0042
     39  CD2       29.1660   11.6070    8.5840 C.ar   25  PHE25      -0.0042
     40  CE1       29.0820   12.5230   11.1950 C.ar   25  PHE25      -0.0003
     41  CE2       28.3750   12.6930    8.9000 C.ar   25  PHE25      -0.0003
     42  CZ        28.3330   13.1550   10.2130 C.ar   25  PHE25      -0.0000
     43  N         28.2140   12.6700    3.2040 N.3    31  LYS31      -0.1231
     44  CA        28.0670   13.5450    4.3560 C.3    31  LYS31       0.1693
     45  C         26.9110   13.1290    5.2250 C.2    31  LYS31       0.2592
     46  O         26.4630   13.9050    6.0630 O.2    31  LYS31      -0.2718
     47  CB        27.8030   14.9680    3.8670 C.3    31  LYS31       0.0285
     48  CG        26.5430   15.0600    2.9850 C.3    31  LYS31       0.0035
     49  CD        26.4120   16.3980    2.2610 C.3    31  LYS31       0.0206
     50  CE        25.1830   16.4120    1.3510 C.3    31  LYS31       0.1093
     51  NZ        25.1830   15.2790    0.3740 N.3    31  LYS31      -0.1314
     52  N         26.4110   11.9230    5.0170 N.am   32  VAL32      -0.1966
     53  CA        25.2920   11.4600    5.8020 C.3    32  VAL32       0.1712
     54  C         25.7230   10.3510    6.7260 C.2    32  VAL32       0.2458
     55  O         26.4890    9.4740    6.3360 O.2    32  VAL32      -0.2730
     56  CB        24.1470   10.9400    4.9070 C.3    32  VAL32       0.0289
     57  CG1       23.4770   12.1030    4.1880 C.3    32  VAL32       0.0023
     58  CG2       24.6920    9.9370    3.9080 C.3    32  VAL32       0.0023
     59  N         25.2560   10.3930    7.9800 N.am   33  PRO33      -0.2727
     60  CA        25.6240    9.3470    8.9260 C.3    33  PRO33       0.1402
     61  C         24.9920    8.0550    8.4550 C.2    33  PRO33       0.2269
     62  O         23.9230    8.0740    7.8350 O.2    33  PRO33      -0.2865
     63  CB        25.0010    9.8270   10.2380 C.3    33  PRO33       0.0296
     64  CG        24.9640   11.3170   10.0810 C.3    33  PRO33       0.0237
     65  CD        24.5160   11.4770    8.6510 C.3    33  PRO33       0.0939
     66  N         22.8720    6.3130   13.8090 N.3    36  ARG36      -0.1245
     67  CA        22.6140    7.3080   14.8570 C.3    36  ARG36       0.1563
     68  C         21.8360    6.6400   15.9720 C.2    36  ARG36       0.2260
     69  O         20.9610    5.8190   15.7110 O.2    36  ARG36      -0.2867
     70  CB        21.7510    8.4740   14.3640 C.3    36  ARG36       0.0307
     71  CG        22.2610    9.2610   13.2050 C.3    36  ARG36       0.0489
     72  CD        21.4190   10.5360   13.0500 C.3    36  ARG36       0.2205
     73  NE        21.2620   10.9280   11.6520 N.pl3  36  ARG36      -0.0865
     74  CZ        21.6200   12.1070   11.1520 C.cat  36  ARG36       0.5346
     75  NH1       22.1700   13.0240   11.9360 N.pl3  36  ARG36       0.1354
     76  NH2       21.4200   12.3700    9.8650 N.pl3  36  ARG36       0.1354
     77  N         22.5970   14.8040   17.9350 N.3    60  ASN60      -0.1240
     78  CA        23.2040   13.9890   16.8920 C.3    60  ASN60       0.1653
     79  C         22.4210   13.9750   15.5590 C.2    60  ASN60       0.2266
     80  O         21.4650   14.7550   15.3730 O.2    60  ASN60      -0.2867
     81  CB        23.3580   12.5480   17.3950 C.3    60  ASN60       0.1155
     82  CG        22.0110   11.8710   17.6360 C.2    60  ASN60       0.2627
     83  OD1       21.0880   12.4760   18.1870 O.2    60  ASN60      -0.2716
     84  ND2       21.9040   10.6130   17.2460 N.am   60  ASN60      -0.0877
@<TRIPOS>BOND
     1    51    50    1
     2    50    49    1
     3    49    48    1
     4    48    47    1
     5    43    44    1
     6    47    44    1
     7    58    56    1
     8    57    56    1
     9    44    45    1
    10    56    53    1
    11    52    45   am
    12    52    53    1
    13    45    46    2
    14    53    54    1
    15    55    54    2
    16    54    59   am
    17    62    61    2
    18    15    13    1
    19    59    65    1
    20    59    60    1
    21    14    13    1
    22    61    60    1
    23     8     6    1
    24    39    41   ar
    25    39    37   ar
    26    65    64    1
    27    41    42   ar
    28    60    63    1
    29    34    33    1
    30    34    35    2
    31    13    10    1
    32    36    33    1
    33    36    37    1
    34     6     7    1
    35     6     5    1
    36    33    32    1
    37    37    38   ar
    38    10     9    1
    39    10    11    1
    40    76    74    1
    41     4     3    2
    42    64    63    1
    43    22    21    1
    44    22    16    1
    45    42    40   ar
    46     9     3   am
    47     3     2    1
    48     5     2    1
    49    21    20    1
    50    38    40   ar
    51    11    16   am
    52    11    12    2
    53    74    73    2
    54    74    75    1
    55    16    17    1
    56     2     1    1
    57    73    72    1
    58    20    17    1
    59    17    18    1
    60    18    19    2
    61    72    71    1
    62    31    30    1
    63    71    70    1
    64    29    30    1
    65    29    28    1
    66    66    67    1
    67    27    28    1
    68    27    24    1
    69    25    26    2
    70    25    24    1
    71    70    67    1
    72    24    23    1
    73    67    68    1
    74    80    79    2
    75    79    78    1
    76    69    68    2
    77    78    81    1
    78    78    77    1
    79    84    82   am
    80    81    82    1
    81    82    83    2
