@<TRIPOS>MOLECULE
tmp/2bhiA00.pdb
 108 105 0 0 0
SMALL
GASTEIGER

@<TRIPOS>ATOM
      1  N         43.0920   -6.4760   14.8490 N.3     5  LYS5       -0.1231
      2  CA        42.8530   -5.0570   14.6180 C.3     5  LYS5        0.1693
      3  C         42.4540   -4.9000   13.1520 C.2     5  LYS5        0.2591
      4  O         42.3430   -5.8980   12.4410 O.2     5  LYS5       -0.2718
      5  CB        44.1100   -4.2360   14.9280 C.3     5  LYS5        0.0285
      6  CG        44.5180   -4.2670   16.4000 C.3     5  LYS5        0.0035
      7  CD        45.6900   -3.3300   16.6510 C.3     5  LYS5        0.0206
      8  CE        46.1230   -3.3170   18.1100 C.3     5  LYS5        0.1093
      9  NZ        47.4290   -2.5990   18.2760 N.3     5  LYS5       -0.1314
     10  N         42.2390   -3.6650   12.6970 N.am    6  LEU6       -0.1980
     11  CA        41.8310   -3.4320   11.3120 C.3     6  LEU6        0.1596
     12  C         42.6270   -4.2860   10.3340 C.2     6  LEU6        0.2287
     13  O         42.0500   -4.9190    9.4450 O.2     6  LEU6       -0.2864
     14  CB        41.9600   -1.9450   10.9540 C.3     6  LEU6        0.0297
     15  CG        41.4620   -1.5010    9.5790 C.3     6  LEU6        0.0022
     16  CD1       40.0550   -1.9980    9.3690 C.3     6  LEU6        0.0001
     17  CD2       41.5060    0.0210    9.4630 C.3     6  LEU6        0.0001
     18  N         45.5690   -7.4260   19.4220 N.3    12  LYS12      -0.1231
     19  CA        45.8040   -6.8230   20.7290 C.3    12  LYS12       0.1693
     20  C         45.1840   -7.6610   21.8370 C.2    12  LYS12       0.2592
     21  O         44.4220   -8.5790   21.5710 O.2    12  LYS12      -0.2718
     22  CB        45.2070   -5.4170   20.7870 C.3    12  LYS12       0.0285
     23  CG        43.6880   -5.4030   20.8770 C.3    12  LYS12       0.0035
     24  CD        43.1450   -4.0310   21.2260 C.3    12  LYS12       0.0206
     25  CE        43.1750   -3.0740   20.0470 C.3    12  LYS12       0.1093
     26  NZ        42.8170   -1.7030   20.5170 N.3    12  LYS12      -0.1314
     27  N         45.5190   -7.3300   23.0810 N.am   13  THR13      -0.1953
     28  CA        44.9680   -8.0160   24.2380 C.3    13  THR13       0.1897
     29  C         43.9440   -7.0820   24.8820 C.2    13  THR13       0.2313
     30  O         44.2380   -5.9310   25.1960 O.2    13  THR13      -0.2863
     31  CB        46.0720   -8.3860   25.2490 C.3    13  THR13       0.1794
     32  OG1       46.8990   -9.4140   24.6840 O.3    13  THR13      -0.2208
     33  CG2       45.4610   -8.8760   26.5620 C.3    13  THR13       0.0378
     34  N         41.3130   -5.1970   27.4400 N.3    15  PRO15      -0.2102
     35  CA        41.4160   -4.7740   28.8420 C.3    15  PRO15       0.1504
     36  C         40.3150   -5.4960   29.6000 C.2    15  PRO15       0.2576
     37  O         39.4180   -6.0800   28.9790 O.2    15  PRO15      -0.2718
     38  CB        41.1640   -3.2760   28.7650 C.3    15  PRO15       0.0282
     39  CG        40.1890   -3.1650   27.6330 C.3    15  PRO15       0.0208
     40  CD        40.7510   -4.1290   26.5970 C.3    15  PRO15       0.0893
     41  N         40.3720   -5.4690   30.9290 N.am   16  ALA16      -0.1966
     42  CA        39.3450   -6.1200   31.7410 C.3    16  ALA16       0.1728
     43  C         37.9660   -5.5670   31.3790 C.2    16  ALA16       0.2617
     44  O         37.8050   -4.3690   31.1470 O.2    16  ALA16      -0.2715
     45  CB        39.6200   -5.8790   33.2150 C.3    16  ALA16       0.0334
     46  N         36.9650   -6.4410   31.3290 N.am   17  GLY17      -0.1940
     47  CA        35.6330   -5.9800   30.9910 C.3    17  GLY17       0.2014
     48  C         35.2680   -6.0560   29.5140 C.2    17  GLY17       0.2638
     49  O         34.0970   -5.8770   29.1670 O.2    17  GLY17      -0.2714
     50  N         36.2410   -6.2910   28.6390 N.am   18  LYS18      -0.1977
     51  CA        35.9390   -6.4190   27.2150 C.3    18  LYS18       0.1596
     52  C         36.1860   -7.8620   26.8160 C.2    18  LYS18       0.2287
     53  O         37.2870   -8.2370   26.4270 O.2    18  LYS18      -0.2864
     54  CB        36.7900   -5.4690   26.3780 C.3    18  LYS18       0.0298
     55  CG        36.3810   -4.0240   26.5950 C.3    18  LYS18       0.0038
     56  CD        37.0660   -3.0740   25.6480 C.3    18  LYS18       0.0206
     57  CE        36.4910   -1.6780   25.7950 C.3    18  LYS18       0.1093
     58  NZ        37.1350   -0.7450   24.8410 N.3    18  LYS18      -0.1314
     59  N         35.1390   -8.0020   17.8600 N.3    22  TYR22      -0.1241
     60  CA        34.1220   -7.6300   16.8870 C.3    22  TYR22       0.1605
     61  C         34.7370   -7.1830   15.5650 C.2    22  TYR22       0.2264
     62  O         35.9110   -6.7830   15.4910 O.2    22  TYR22      -0.2867
     63  CB        33.2200   -6.4930   17.4060 C.3    22  TYR22       0.0534
     64  CG        33.8690   -5.1230   17.3760 C.ar   22  TYR22      -0.0201
     65  CD1       34.7330   -4.7180   18.3940 C.ar   22  TYR22      -0.0009
     66  CD2       33.6650   -4.2650   16.2970 C.ar   22  TYR22      -0.0009
     67  CE1       35.3850   -3.4860   18.3450 C.ar   22  TYR22       0.0417
     68  CE2       34.3040   -3.0270   16.2250 C.ar   22  TYR22       0.0417
     69  CZ        35.1620   -2.6490   17.2550 C.ar   22  TYR22       0.1957
     70  OH        35.7920   -1.4360   17.1930 O.3    22  TYR22      -0.2866
     71  N         36.2210   -1.7060   10.7450 N.3    35  LYS35      -0.1231
     72  CA        36.6720   -1.5780   12.1180 C.3    35  LYS35       0.1693
     73  C         36.7210   -2.9510   12.7660 C.2    35  LYS35       0.2592
     74  O         35.9000   -3.8040   12.4560 O.2    35  LYS35      -0.2718
     75  CB        35.7220   -0.6540   12.8720 C.3    35  LYS35       0.0285
     76  CG        36.3480    0.0080   14.0580 C.3    35  LYS35       0.0035
     77  CD        35.3940    0.9830   14.7160 C.3    35  LYS35       0.0206
     78  CE        36.0240    1.5200   15.9860 C.3    35  LYS35       0.1093
     79  NZ        35.0890    2.3190   16.7900 N.3    35  LYS35      -0.1314
     80  N         37.6920   -3.1480   13.6520 N.am   36  ARG36      -0.1966
     81  CA        37.9030   -4.4120   14.3660 C.3    36  ARG36       0.1729
     82  C         38.6040   -4.1760   15.6970 C.2    36  ARG36       0.2617
     83  O         39.4380   -3.2820   15.8000 O.2    36  ARG36      -0.2715
     84  CB        38.7660   -5.3680   13.5370 C.3    36  ARG36       0.0348
     85  CG        37.9860   -6.2230   12.5720 C.3    36  ARG36       0.0492
     86  CD        38.7390   -7.4810   12.1760 C.3    36  ARG36       0.2205
     87  NE        39.4730   -7.2670   10.9460 N.pl3  36  ARG36      -0.0865
     88  CZ        39.4210   -8.0670    9.8850 C.cat  36  ARG36       0.5346
     89  NH1       40.1320   -7.7690    8.8090 N.pl3  36  ARG36       0.1354
     90  NH2       38.6730   -9.1640    9.8990 N.pl3  36  ARG36       0.1354
     91  N         38.2770   -4.9860   16.7050 N.am   37  GLY37      -0.1940
     92  CA        38.9030   -4.8400   18.0100 C.3    37  GLY37       0.2014
     93  C         38.1510   -5.5260   19.1420 C.2    37  GLY37       0.2639
     94  O         37.4190   -6.4970   18.9210 O.2    37  GLY37      -0.2714
     95  N         38.3630   -5.0220   20.3540 N.am   38  CYS38      -0.1953
     96  CA        37.7170   -5.5160   21.5790 C.3    38  CYS38       0.1843
     97  C         36.5490   -4.6130   21.9390 C.2    38  CYS38       0.2625
     98  O         36.5920   -3.3990   21.6940 O.2    38  CYS38      -0.2714
     99  CB        38.6700   -5.4620   22.7720 C.3    38  CYS38       0.0997
    100  SG        40.1890   -6.4330   22.6250 S.3    38  CYS38      -0.0797
    101  N         35.5140   -5.2120   22.5280 N.am   39  ILE39      -0.1977
    102  CA        34.3530   -4.4700   22.9700 C.3    39  ILE39       0.1596
    103  C         33.6750   -5.2160   24.1210 C.2    39  ILE39       0.2287
    104  O         33.9290   -6.4050   24.3460 O.2    39  ILE39      -0.2864
    105  CB        33.3680   -4.2270   21.8140 C.3    39  ILE39       0.0276
    106  CG1       32.4740   -3.0320   22.1460 C.3    39  ILE39       0.0022
    107  CG2       32.5300   -5.4480   21.5710 C.3    39  ILE39       0.0022
    108  CD1       31.6470   -2.5450   20.9680 C.3    39  ILE39       0.0001
@<TRIPOS>BOND
     1    89    88    1
     2    16    15    1
     3    13    12    2
     4    17    15    1
     5    15    14    1
     6    88    90    1
     7    88    87    2
     8    12    11    1
     9    71    72    1
    10    87    86    1
    11    14    11    1
    12    11    10    1
    13    72    73    1
    14    72    75    1
    15    86    85    1
    16     4     3    2
    17    74    73    2
    18    85    84    1
    19    10     3   am
    20    73    80   am
    21    75    76    1
    22     3     2    1
    23    84    81    1
    24    80    81    1
    25    76    77    1
    26    81    82    1
    27     2     1    1
    28     2     5    1
    29    77    78    1
    30     5     6    1
    31    62    61    2
    32    61    60    1
    33    82    83    2
    34    82    91   am
    35    78    79    1
    36    68    66   ar
    37    68    69   ar
    38    66    64   ar
    39     6     7    1
    40     7     8    1
    41    91    92    1
    42    60    63    1
    43    60    59    1
    44    70    69    1
    45    69    67   ar
    46    64    63    1
    47    64    65   ar
    48    92    93    1
    49     8     9    1
    50    67    65   ar
    51    94    93    2
    52    93    95   am
    53    18    19    1
    54    25    26    1
    55    25    24    1
    56    95    96    1
    57    19    22    1
    58    19    20    1
    59    22    23    1
    60    23    24    1
    61   108   106    1
    62   107   105    1
    63    21    20    2
    64    96    97    1
    65    96    99    1
    66    98    97    2
    67   105   106    1
    68   105   102    1
    69    20    27   am
    70    97   101   am
    71   101   102    1
    72   100    99    1
    73   102   103    1
    74    27    28    1
    75   103   104    2
    76    28    29    1
    77    28    31    1
    78    32    31    1
    79    58    57    1
    80    29    30    2
    81    31    33    1
    82    56    57    1
    83    56    55    1
    84    54    55    1
    85    54    51    1
    86    53    52    2
    87    40    34    1
    88    40    39    1
    89    52    51    1
    90    51    50    1
    91    34    35    1
    92    39    38    1
    93    50    48   am
    94    38    35    1
    95    35    36    1
    96    37    36    2
    97    49    48    2
    98    48    47    1
    99    36    41   am
   100    41    42    1
   101    47    46    1
   102    44    43    2
   103    46    43   am
   104    43    42    1
   105    42    45    1
