@<TRIPOS>MOLECULE
tmp/2bhjA00.pdb
 138 137 0 0 0
SMALL
GASTEIGER

@<TRIPOS>ATOM
      1  N        -12.8110   75.9440  -30.7540 N.3   110  CYS110     -0.1235
      2  CA       -13.7510   74.8330  -30.9060 C.3   110  CYS110      0.1677
      3  C        -13.5600   74.2150  -32.2830 C.2   110  CYS110      0.2270
      4  O        -13.7690   74.8840  -33.2910 O.2   110  CYS110     -0.2867
      5  CB       -15.2040   75.3450  -30.7430 C.3   110  CYS110      0.0956
      6  SG       -16.6340   74.2890  -31.3110 S.3   110  CYS110     -0.0801
      7  N        -20.1070   74.8340  -14.2230 N.3   172  SER172     -0.1202
      8  CA       -19.0730   74.6970  -15.2260 C.3   172  SER172      0.2020
      9  C        -19.7850   74.2050  -16.4750 C.2   172  SER172      0.2618
     10  O        -19.6020   74.7360  -17.5720 O.2   172  SER172     -0.2717
     11  CB       -18.0500   73.6780  -14.7430 C.3   172  SER172      0.2103
     12  OG       -18.3240   73.3130  -13.3950 O.3   172  SER172     -0.2182
     13  N        -20.6100   73.1820  -16.2970 N.am  173  GLN173     -0.1979
     14  CA       -21.3830   72.6320  -17.4010 C.3   173  GLN173      0.1601
     15  C        -22.6050   71.9200  -16.8400 C.2   173  GLN173      0.2287
     16  O        -22.6590   71.6070  -15.6360 O.2   173  GLN173     -0.2864
     17  CB       -20.5300   71.6880  -18.2700 C.3   173  GLN173      0.0394
     18  CG       -20.0010   70.4290  -17.5890 C.3   173  GLN173      0.0908
     19  CD       -18.7000   69.9130  -18.2140 C.2   173  GLN173      0.2608
     20  OE1      -17.6500   69.9130  -17.5740 O.2   173  GLN173     -0.2717
     21  NE2      -18.7730   69.4690  -19.4650 N.am  173  GLN173     -0.0878
     22  N        -21.9760   67.1760  -14.6300 N.3   176  ARG176     -0.1245
     23  CA       -20.5970   67.0580  -14.2110 C.3   176  ARG176      0.1563
     24  C        -20.5520   66.4420  -12.8380 C.2   176  ARG176      0.2260
     25  O        -21.1410   66.9640  -11.8940 O.2   176  ARG176     -0.2867
     26  CB       -19.9290   68.4260  -14.1870 C.3   176  ARG176      0.0307
     27  CG       -18.9040   68.5970  -15.2810 C.3   176  ARG176      0.0489
     28  CD       -17.5540   68.0720  -14.8540 C.3   176  ARG176      0.2205
     29  NE       -16.8990   69.0070  -13.9490 N.pl3 176  ARG176     -0.0865
     30  CZ       -16.3210   70.1400  -14.3350 C.cat 176  ARG176      0.5346
     31  NH1      -16.3170   70.4790  -15.6150 N.pl3 176  ARG176      0.1354
     32  NH2      -15.7530   70.9360  -13.4400 N.pl3 176  ARG176      0.1354
     33  N        -20.6260   60.8780  -18.4540 N.3   257  TYR257     -0.1241
     34  CA       -21.8080   61.5050  -19.0440 C.3   257  TYR257      0.1605
     35  C        -21.6320   61.7200  -20.5460 C.2   257  TYR257      0.2264
     36  O        -20.6180   62.2400  -21.0020 O.2   257  TYR257     -0.2867
     37  CB       -22.1290   62.8360  -18.3500 C.3   257  TYR257      0.0534
     38  CG       -20.9910   63.8270  -18.2160 C.ar  257  TYR257     -0.0201
     39  CD1      -20.3370   63.9950  -16.9980 C.ar  257  TYR257     -0.0009
     40  CD2      -20.6280   64.6580  -19.2760 C.ar  257  TYR257     -0.0009
     41  CE1      -19.3550   64.9630  -16.8270 C.ar  257  TYR257      0.0417
     42  CE2      -19.6490   65.6320  -19.1150 C.ar  257  TYR257      0.0417
     43  CZ       -19.0170   65.7800  -17.8880 C.ar  257  TYR257      0.1957
     44  OH       -18.0570   66.7490  -17.7140 O.3   257  TYR257     -0.2866
     45  N        -21.8500   66.8920  -23.2720 N.3   260  PRO260     -0.2116
     46  CA       -21.0270   68.0390  -22.9000 C.3   260  PRO260      0.1372
     47  C        -21.8260   69.3270  -23.1610 C.2   260  PRO260      0.2244
     48  O        -22.1120   69.6920  -24.3120 O.2   260  PRO260     -0.2868
     49  CB       -19.8100   67.9050  -23.8090 C.3   260  PRO260      0.0268
     50  CG       -20.3380   67.1900  -25.0550 C.3   260  PRO260      0.0207
     51  CD       -21.6470   66.5150  -24.6840 C.3   260  PRO260      0.0892
     52  N        -21.8960   73.3410  -21.7580 N.3   262  VAL262     -0.1245
     53  CA       -21.2960   74.4170  -20.9670 C.3   262  VAL262      0.1561
     54  C        -22.3690   75.3210  -20.3860 C.2   262  VAL262      0.2260
     55  O        -23.2490   75.8020  -21.1080 O.2   262  VAL262     -0.2867
     56  CB       -20.3640   75.3010  -21.8240 C.3   262  VAL262      0.0252
     57  CG1      -19.0460   75.5120  -21.1060 C.3   262  VAL262      0.0019
     58  CG2      -20.1480   74.6660  -23.1820 C.3   262  VAL262      0.0019
     59  N        -25.2070   75.7450  -23.9050 N.3   279  PHE279     -0.1227
     60  CA       -25.1750   75.1610  -25.2370 C.3   279  PHE279      0.1736
     61  C        -24.4470   73.8320  -25.1110 C.2   279  PHE279      0.2595
     62  O        -23.5780   73.6510  -24.2410 O.2   279  PHE279     -0.2718
     63  CB       -24.4340   76.0720  -26.2160 C.3   279  PHE279      0.0547
     64  CG       -23.0740   76.4820  -25.7420 C.ar  279  PHE279     -0.0202
     65  CD1      -21.9300   76.0270  -26.3780 C.ar  279  PHE279     -0.0042
     66  CD2      -22.9390   77.3080  -24.6370 C.ar  279  PHE279     -0.0042
     67  CE1      -20.6830   76.3870  -25.9170 C.ar  279  PHE279     -0.0003
     68  CE2      -21.6900   77.6730  -24.1700 C.ar  279  PHE279     -0.0003
     69  CZ       -20.5580   77.2110  -24.8130 C.ar  279  PHE279     -0.0000
     70  N        -24.8030   72.9020  -25.9850 N.am  280  ASN280     -0.1960
     71  CA       -24.2130   71.5790  -25.9510 C.3   280  ASN280      0.1819
     72  C        -23.8360   71.1330  -27.3450 C.2   280  ASN280      0.2622
     73  O        -24.3380   71.6390  -28.3520 O.2   280  ASN280     -0.2715
     74  CB       -25.2260   70.5820  -25.4080 C.3   280  ASN280      0.1195
     75  CG       -26.3880   70.3650  -26.3790 C.2   280  ASN280      0.2630
     76  OD1      -27.4700   70.9090  -26.1870 O.2   280  ASN280     -0.2716
     77  ND2      -26.1580   69.5870  -27.4350 N.am  280  ASN280     -0.0877
     78  N        -22.9590   70.1480  -27.3800 N.am  281  GLY281     -0.1940
     79  CA       -22.5230   69.5690  -28.6260 C.3   281  GLY281      0.2014
     80  C        -22.1250   68.2010  -28.1420 C.2   281  GLY281      0.2639
     81  O        -22.2900   67.9120  -26.9580 O.2   281  GLY281     -0.2714
     82  N        -21.6080   67.3580  -29.0200 N.am  282  TRP282     -0.1959
     83  CA       -21.2050   66.0360  -28.5900 C.3   282  TRP282      0.1771
     84  C        -19.7030   65.9540  -28.4120 C.2   282  TRP282      0.2620
     85  O        -18.9510   66.7110  -29.0180 O.2   282  TRP282     -0.2715
     86  CB       -21.6440   65.0210  -29.6080 C.3   282  TRP282      0.0590
     87  CG       -21.1260   65.3330  -30.9280 C.ar  282  TRP282      0.0006
     88  CD1      -19.8420   65.1960  -31.3540 C.ar  282  TRP282      0.0946
     89  CD2      -21.8850   65.7500  -32.0550 C.ar  282  TRP282      0.0152
     90  NE1      -19.7530   65.4960  -32.6920 N.ar  282  TRP282     -0.2442
     91  CE2      -20.9980   65.8400  -33.1470 C.ar  282  TRP282      0.0810
     92  CE3      -23.2340   66.0540  -32.2520 C.ar  282  TRP282      0.0012
     93  CZ2      -21.4140   66.2220  -34.4230 C.ar  282  TRP282      0.0191
     94  CZ3      -23.6510   66.4320  -33.5250 C.ar  282  TRP282      0.0001
     95  CH2      -22.7410   66.5120  -34.5940 C.ar  282  TRP282      0.0015
     96  N        -19.2820   65.0040  -27.5910 N.am  283  TYR283     -0.1960
     97  CA       -17.8790   64.7840  -27.2730 C.3   283  TYR283      0.1771
     98  C        -16.9230   64.4580  -28.4160 C.2   283  TYR283      0.2619
     99  O        -17.3230   64.0420  -29.5180 O.2   283  TYR283     -0.2715
    100  CB       -17.7730   63.6530  -26.2620 C.3   283  TYR283      0.0574
    101  CG       -17.8480   64.0890  -24.8310 C.ar  283  TYR283     -0.0198
    102  CD1      -16.8450   64.8620  -24.2800 C.ar  283  TYR283     -0.0009
    103  CD2      -18.9010   63.7010  -24.0130 C.ar  283  TYR283     -0.0009
    104  CE1      -16.8730   65.2410  -22.9510 C.ar  283  TYR283      0.0417
    105  CE2      -18.9410   64.0750  -22.6720 C.ar  283  TYR283      0.0417
    106  CZ       -17.9150   64.8470  -22.1530 C.ar  283  TYR283      0.1957
    107  OH       -17.9000   65.2270  -20.8370 O.3   283  TYR283     -0.2866
    108  N        -15.6450   64.6900  -28.1170 N.am  284  MET284     -0.1977
    109  CA       -14.5330   64.3450  -28.9940 C.3   284  MET284      0.1605
    110  C        -13.7900   63.4510  -27.9990 C.2   284  MET284      0.2287
    111  O        -13.4970   63.8690  -26.8560 O.2   284  MET284     -0.2864
    112  CB       -13.6600   65.5420  -29.3680 C.3   284  MET284      0.0413
    113  CG       -12.2410   65.1050  -29.7400 C.3   284  MET284      0.0598
    114  SD       -11.2390   66.1530  -30.8460 S.3   284  MET284     -0.1393
    115  CE       -12.4370   67.1070  -31.6560 C.3   284  MET284      0.0692
    116  N        -11.0700   64.3810  -24.8220 N.3   287  GLU287     -0.1245
    117  CA       -11.3530   65.1130  -23.5880 C.3   287  GLU287      0.1567
    118  C        -11.7070   64.0760  -22.5370 C.2   287  GLU287      0.2260
    119  O        -11.1680   64.0830  -21.4250 O.2   287  GLU287     -0.2867
    120  CB       -12.5170   66.0970  -23.7730 C.3   287  GLU287      0.0388
    121  CG       -12.6850   67.0930  -22.6110 C.3   287  GLU287      0.1160
    122  CD       -11.4860   68.0350  -22.4340 C.2   287  GLU287      0.3649
    123  OE1      -10.6620   68.1510  -23.3870 O.co2 287  GLU287     -0.2457
    124  OE2      -11.3780   68.6590  -21.3410 O.co2 287  GLU287     -0.2457
    125  N         -5.5970   75.5750  -28.7090 N.3   373  TRP373     -0.1241
    126  CA        -6.7930   74.8430  -28.3070 C.3   373  TRP373      0.1605
    127  C         -7.2670   73.8660  -29.3640 C.2   373  TRP373      0.2264
    128  O         -7.6430   72.7400  -29.0530 O.2   373  TRP373     -0.2867
    129  CB        -7.9170   75.8250  -27.9520 C.3   373  TRP373      0.0550
    130  CG        -7.8500   76.2480  -26.5230 C.ar  373  TRP373      0.0003
    131  CD1       -6.7840   76.8280  -25.8920 C.ar  373  TRP373      0.0946
    132  CD2       -8.8250   75.9960  -25.5060 C.ar  373  TRP373      0.0152
    133  NE1       -7.0290   76.9400  -24.5450 N.ar  373  TRP373     -0.2442
    134  CE2       -8.2740   76.4360  -24.2800 C.ar  373  TRP373      0.0810
    135  CE3      -10.1090   75.4350  -25.5090 C.ar  373  TRP373      0.0012
    136  CZ2       -8.9640   76.3320  -23.0670 C.ar  373  TRP373      0.0191
    137  CZ3      -10.7960   75.3290  -24.2950 C.ar  373  TRP373      0.0001
    138  CH2      -10.2170   75.7760  -23.0930 C.ar  373  TRP373      0.0015
@<TRIPOS>BOND
     1    95    93   ar
     2    95    94   ar
     3    93    91   ar
     4    94    92   ar
     5     4     3    2
     6    91    90   ar
     7    91    89   ar
     8    90    88   ar
     9     3     2    1
    10    92    89   ar
    11    89    87   ar
    12   115   114    1
    13    88    87   ar
    14     6     5    1
    15    87    86    1
    16     2     1    1
    17     2     5    1
    18   114   113    1
    19   113   112    1
    20    86    83    1
    21    99    98    2
    22   112   109    1
    23   127   128    2
    24   127   126    1
    25    82    83    1
    26    82    80   am
    27    85    84    2
    28   109   108    1
    29   109   110    1
    30   125   126    1
    31    79    80    1
    32    79    78    1
    33    83    84    1
    34    98   108   am
    35    98    97    1
    36    84    96   am
    37    73    72    2
    38   126   129    1
    39    80    81    2
    40   110   111    2
    41   129   130    1
    42    96    97    1
    43    77    75   am
    44    78    72   am
    45    72    71    1
    46    97   100    1
    47   130   131   ar
    48   130   132   ar
    49    75    76    2
    50    75    74    1
    51    65    67   ar
    52    65    64   ar
    53   100   101    1
    54    63    64    1
    55    63    60    1
    56    70    71    1
    57    70    61   am
    58    71    74    1
    59    67    69   ar
    60   131   133   ar
    61    64    66   ar
    62   135   132   ar
    63   135   137   ar
    64   132   134   ar
    65    60    61    1
    66    60    59    1
    67    61    62    2
    68    50    51    1
    69    50    49    1
    70   101   102   ar
    71   101   103   ar
    72   116   117    1
    73    69    68   ar
    74    51    45    1
    75    66    68   ar
    76   133   134   ar
    77    48    47    2
    78   137   138   ar
    79   134   136   ar
    80   102   104   ar
    81   103   105   ar
    82    49    46    1
    83   120   117    1
    84   120   121    1
    85   117   118    1
    86   123   122   ar
    87    45    46    1
    88    58    56    1
    89    47    46    1
    90   138   136   ar
    91   104   106   ar
    92   105   106   ar
    93   121   122    1
    94   118   119    2
    95   122   124   ar
    96   106   107    1
    97    56    57    1
    98    56    53    1
    99    52    53    1
   100    55    54    2
   101    36    35    2
   102    53    54    1
   103    35    34    1
   104    21    19   am
   105    40    42   ar
   106    40    38   ar
   107    42    43   ar
   108    34    33    1
   109    34    37    1
   110    37    38    1
   111    17    18    1
   112    17    14    1
   113    38    39   ar
   114    19    18    1
   115    19    20    2
   116    43    44    1
   117    43    41   ar
   118    10     9    2
   119    14    15    1
   120    14    13    1
   121    39    41   ar
   122    15    16    2
   123     9    13   am
   124     9     8    1
   125    31    30    1
   126    27    28    1
   127    27    26    1
   128     8    11    1
   129     8     7    1
   130    28    29    1
   131    11    12    1
   132    22    23    1
   133    30    29    2
   134    30    32    1
   135    23    26    1
   136    23    24    1
   137    24    25    2
