@<TRIPOS>MOLECULE
tmp/2bhlA00.pdb
 136 130 0 0 0
SMALL
GASTEIGER

@<TRIPOS>ATOM
      1  N          4.0110  129.9800    1.6240 N.3   145  LYS145     -0.1245
      2  CA         2.6960  129.5490    1.1930 C.3   145  LYS145      0.1561
      3  C          1.6150  130.5990    1.4540 C.2   145  LYS145      0.2260
      4  O          1.8210  131.5540    2.2100 O.2   145  LYS145     -0.2867
      5  CB         2.3330  128.2000    1.8030 C.3   145  LYS145      0.0271
      6  CG         2.0190  128.2390    3.2830 C.3   145  LYS145      0.0035
      7  CD         0.9820  127.1900    3.6470 C.3   145  LYS145      0.0206
      8  CE         1.1240  126.7430    5.0860 C.3   145  LYS145      0.1093
      9  NZ         0.8790  125.2830    5.2100 N.3   145  LYS145     -0.1314
     10  N          8.2810  124.7590    6.3030 N.3   175  HIS175     -0.1226
     11  CA         9.0290  124.6740    7.5460 C.3   175  HIS175      0.1752
     12  C          9.2490  123.2760    8.1080 C.2   175  HIS175      0.2596
     13  O         10.1810  123.0550    8.8770 O.2   175  HIS175     -0.2718
     14  CB         8.4580  125.6260    8.6010 C.3   175  HIS175      0.0759
     15  CG         7.1480  125.1880    9.1760 C.ar  175  HIS175      0.0818
     16  ND1        5.9490  125.3630    8.5170 N.ar  175  HIS175     -0.2268
     17  CD2        6.8410  124.6340   10.3740 C.ar  175  HIS175      0.1154
     18  CE1        4.9620  124.9210    9.2750 C.ar  175  HIS175      0.1986
     19  NE2        5.4750  124.4750   10.4080 N.ar  175  HIS175     -0.2212
     20  N          8.3980  122.3310    7.7350 N.am  176  TYR176     -0.1976
     21  CA         8.5680  120.9780    8.2400 C.3   176  TYR176      0.1639
     22  C          9.8960  120.4520    7.7550 C.2   176  TYR176      0.2290
     23  O         10.5220  119.6310    8.4120 O.2   176  TYR176     -0.2864
     24  CB         7.4200  120.0700    7.8100 C.3   176  TYR176      0.0560
     25  CG         6.3950  119.9100    8.9010 C.ar  176  TYR176     -0.0198
     26  CD1        5.7640  121.0220    9.4440 C.ar  176  TYR176     -0.0009
     27  CD2        6.1480  118.6710    9.4770 C.ar  176  TYR176     -0.0009
     28  CE1        4.8800  120.9020   10.4890 C.ar  176  TYR176      0.0417
     29  CE2        5.2570  118.5420   10.5280 C.ar  176  TYR176      0.0417
     30  CZ         4.6230  119.6640   11.0250 C.ar  176  TYR176      0.1957
     31  OH         3.7130  119.5620   12.0480 O.3   176  TYR176     -0.2866
     32  N         12.5360  121.0280   10.2910 N.3   179  LYS179     -0.1245
     33  CA        12.3790  120.4120   11.6070 C.3   179  LYS179      0.1561
     34  C         13.4290  119.3230   11.8140 C.2   179  LYS179      0.2260
     35  O         13.7280  118.5600   10.8900 O.2   179  LYS179     -0.2867
     36  CB        10.9670  119.8500   11.7710 C.3   179  LYS179      0.0271
     37  CG         9.8950  120.9220   11.8940 C.3   179  LYS179      0.0035
     38  CD         8.5450  120.3350   12.2660 C.3   179  LYS179      0.0206
     39  CE         7.5100  121.4190   12.5240 C.3   179  LYS179      0.1093
     40  NZ         8.0160  122.4820   13.4350 N.3   179  LYS179     -0.1314
     41  N         -0.1930  113.8830   11.5070 N.3   211  PHE211     -0.1241
     42  CA        -0.1750  115.2780   11.9210 C.3   211  PHE211      0.1605
     43  C         -1.4310  115.6000   12.7270 C.2   211  PHE211      0.2264
     44  O         -2.5420  115.5340   12.2040 O.2   211  PHE211     -0.2867
     45  CB        -0.0930  116.2290   10.7320 C.3   211  PHE211      0.0534
     46  CG        -0.2800  117.6650   11.1190 C.ar  211  PHE211     -0.0203
     47  CD1       -1.5530  118.1810   11.3440 C.ar  211  PHE211     -0.0042
     48  CD2        0.8120  118.4640   11.4070 C.ar  211  PHE211     -0.0042
     49  CE1       -1.7300  119.4820   11.7950 C.ar  211  PHE211     -0.0003
     50  CE2        0.6410  119.7730   11.8380 C.ar  211  PHE211     -0.0003
     51  CZ        -0.6330  120.2770   12.0410 C.ar  211  PHE211     -0.0000
     52  N         -3.2780  118.2320   15.9870 N.3   213  GLU213     -0.1245
     53  CA        -3.2680  119.3700   16.8890 C.3   213  GLU213      0.1567
     54  C         -4.4510  119.2580   17.8630 C.2   213  GLU213      0.2260
     55  O         -5.5650  118.8990   17.4650 O.2   213  GLU213     -0.2867
     56  CB        -3.2760  120.6890   16.1200 C.3   213  GLU213      0.0388
     57  CG        -1.9250  121.0360   15.5120 C.3   213  GLU213      0.1160
     58  CD        -2.0090  122.1650   14.5030 C.2   213  GLU213      0.3649
     59  OE1       -3.1240  122.4660   14.0290 O.co2 213  GLU213     -0.2457
     60  OE2       -0.9510  122.7450   14.1720 O.co2 213  GLU213     -0.2457
     61  N         -5.7930  121.5140   19.3700 N.3   215  PHE215     -0.1241
     62  CA        -6.6280  122.6950   19.1660 C.3   215  PHE215      0.1605
     63  C         -7.2690  122.7140   17.7720 C.2   215  PHE215      0.2264
     64  O         -7.0480  121.8180   16.9620 O.2   215  PHE215     -0.2867
     65  CB        -5.8220  123.9810   19.3890 C.3   215  PHE215      0.0534
     66  CG        -4.4910  124.0100   18.6760 C.ar  215  PHE215     -0.0203
     67  CD1       -4.4190  124.3010   17.3210 C.ar  215  PHE215     -0.0042
     68  CD2       -3.3020  123.7850   19.3700 C.ar  215  PHE215     -0.0042
     69  CE1       -3.1860  124.3490   16.6620 C.ar  215  PHE215     -0.0003
     70  CE2       -2.0730  123.8350   18.7170 C.ar  215  PHE215     -0.0003
     71  CZ        -2.0190  124.1170   17.3640 C.ar  215  PHE215     -0.0000
     72  N         -9.3420  129.5640    6.7220 N.3   224  PHE224     -0.1241
     73  CA        -9.1460  128.1460    6.5600 C.3   224  PHE224      0.1605
     74  C        -10.2900  127.5480    5.7460 C.2   224  PHE224      0.2264
     75  O        -10.0680  126.6590    4.9130 O.2   224  PHE224     -0.2867
     76  CB        -9.1210  127.5400    7.9640 C.3   224  PHE224      0.0534
     77  CG        -8.7470  126.0970    8.0220 C.ar  224  PHE224     -0.0203
     78  CD1       -7.4360  125.7150    8.2290 C.ar  224  PHE224     -0.0042
     79  CD2       -9.7170  125.1160    7.9640 C.ar  224  PHE224     -0.0042
     80  CE1       -7.0900  124.3800    8.3190 C.ar  224  PHE224     -0.0003
     81  CE2       -9.3720  123.7770    8.0380 C.ar  224  PHE224     -0.0003
     82  CZ        -8.0580  123.4130    8.2320 C.ar  224  PHE224     -0.0000
     83  N         -3.8930  122.6460    3.4470 N.3   232  ASP232     -0.1225
     84  CA        -3.2190  123.2070    4.6130 C.3   232  ASP232      0.1805
     85  C         -2.0290  122.4380    5.1750 C.2   232  ASP232      0.2597
     86  O         -1.0360  123.0370    5.5780 O.2   232  ASP232     -0.2718
     87  CB        -4.2380  123.4450    5.7330 C.3   232  ASP232      0.1424
     88  CG        -3.6800  124.2940    6.8560 C.2   232  ASP232      0.3668
     89  OD1       -3.4360  125.4950    6.6230 O.co2 232  ASP232     -0.2456
     90  OD2       -3.4670  123.7590    7.9640 O.co2 232  ASP232     -0.2456
     91  N         -2.1460  121.1200    5.2580 N.am  233  VAL233     -0.1980
     92  CA        -1.1080  120.3400    5.9080 C.3   233  VAL233      0.1595
     93  C         -0.6260  119.0820    5.1950 C.2   233  VAL233      0.2287
     94  O          0.5030  118.6310    5.4150 O.2   233  VAL233     -0.2864
     95  CB        -1.5490  119.9800    7.3270 C.3   233  VAL233      0.0276
     96  CG1       -0.7820  118.7830    7.8470 C.3   233  VAL233      0.0022
     97  CG2       -1.3970  121.1910    8.2470 C.3   233  VAL233      0.0022
     98  N          3.2670  119.5660    4.0810 N.3   237  HIS237     -0.1241
     99  CA         3.9700  118.8800    5.1610 C.3   237  HIS237      0.1621
    100  C          4.0250  117.3660    5.0060 C.2   237  HIS237      0.2264
    101  O          5.0970  116.7880    4.8020 O.2   237  HIS237     -0.2867
    102  CB         3.3570  119.2430    6.5340 C.3   237  HIS237      0.0745
    103  CG         3.2730  120.7160    6.7920 C.ar  237  HIS237      0.0817
    104  ND1        3.9140  121.6480    6.0030 N.ar  237  HIS237     -0.2268
    105  CD2        2.6000  121.4200    7.7330 C.ar  237  HIS237      0.1154
    106  CE1        3.6500  122.8610    6.4550 C.ar  237  HIS237      0.1986
    107  NE2        2.8520  122.7510    7.5010 N.ar  237  HIS237     -0.2212
    108  N         -7.2940  118.5030   12.9810 N.3   334  LYS334     -0.1245
    109  CA        -7.2810  119.5730   13.9770 C.3   334  LYS334      0.1561
    110  C         -8.3660  119.2960   15.0120 C.2   334  LYS334      0.2260
    111  O         -9.3750  118.6690   14.6920 O.2   334  LYS334     -0.2867
    112  CB        -7.5410  120.9290   13.3050 C.3   334  LYS334      0.0271
    113  CG        -6.2740  121.7120   12.9620 C.3   334  LYS334      0.0035
    114  CD        -6.5780  123.0450   12.2820 C.3   334  LYS334      0.0206
    115  CE        -5.4120  123.5060   11.3920 C.3   334  LYS334      0.1093
    116  NZ        -4.1970  123.9930   12.1220 N.3   334  LYS334     -0.1314
    117  N         -1.2400  116.7200   20.1660 N.3   339  ARG339     -0.1245
    118  CA        -0.4330  117.4250   19.1890 C.3   339  ARG339      0.1563
    119  C          0.7570  116.5350   18.8460 C.2   339  ARG339      0.2260
    120  O          1.6940  116.3980   19.6420 O.2   339  ARG339     -0.2867
    121  CB         0.0620  118.7490   19.7650 C.3   339  ARG339      0.0307
    122  CG         0.4870  119.7550   18.7220 C.3   339  ARG339      0.0489
    123  CD         1.7440  120.4790   19.1520 C.3   339  ARG339      0.2205
    124  NE         2.0410  121.6110   18.2760 N.pl3 339  ARG339     -0.0865
    125  CZ         3.2590  122.1190   18.0970 C.cat 339  ARG339      0.5346
    126  NH1        4.3010  121.6300   18.7630 N.pl3 339  ARG339      0.1354
    127  NH2        3.4330  123.1400   17.2650 N.pl3 339  ARG339      0.1354
    128  N          7.7400  115.6410   16.5450 N.3   369  GLN369     -0.1245
    129  CA         7.3970  116.4700   17.6810 C.3   369  GLN369      0.1566
    130  C          6.1040  115.9080   18.2580 C.2   369  GLN369      0.2260
    131  O          5.2730  115.3380   17.5330 O.2   369  GLN369     -0.2867
    132  CB         7.1370  117.8920   17.1940 C.3   369  GLN369      0.0367
    133  CG         5.9070  117.9440   16.2940 C.3   369  GLN369      0.0905
    134  CD         5.5750  119.3400   15.8040 C.2   369  GLN369      0.2608
    135  OE1        6.4620  120.1860   15.6920 O.2   369  GLN369     -0.2717
    136  NE2        4.2870  119.6060   15.5570 N.am  369  GLN369     -0.0878
@<TRIPOS>BOND
     1     2     3    1
     2     2     1    1
     3     2     5    1
     4     3     4    2
     5     5     6    1
     6     6     7    1
     7    83    84    1
     8     7     8    1
     9    98    99    1
    10    84    85    1
    11    84    87    1
    12   101   100    2
    13    75    74    2
    14   100    99    1
    15     8     9    1
    16    99   102    1
    17    85    91   am
    18    85    86    2
    19    93    94    2
    20    93    92    1
    21    91    92    1
    22    87    88    1
    23    74    73    1
    24    92    95    1
    25   104   106   ar
    26   104   103   ar
    27    10    11    1
    28   106   107   ar
    29   102   103    1
    30    73    72    1
    31    73    76    1
    32    89    88   ar
    33   103   105   ar
    34    88    90   ar
    35    95    96    1
    36    95    97    1
    37   107   105   ar
    38    11    12    1
    39    11    14    1
    40    20    12   am
    41    20    21    1
    42    22    21    1
    43    22    23    2
    44    24    21    1
    45    24    25    1
    46    76    77    1
    47    79    77   ar
    48    79    81   ar
    49    77    78   ar
    50    81    82   ar
    51    12    13    2
    52    78    80   ar
    53    82    80   ar
    54    16    15   ar
    55    16    18   ar
    56    14    15    1
    57    25    26   ar
    58    25    27   ar
    59    15    17   ar
    60    18    19   ar
    61    26    28   ar
    62    27    29   ar
    63    32    33    1
    64    17    19   ar
    65    28    30   ar
    66    29    30   ar
    67    45    46    1
    68    45    42    1
    69    35    34    2
    70    30    31    1
    71    46    47   ar
    72    46    48   ar
    73    47    49   ar
    74   115   116    1
    75   115   114    1
    76    48    50   ar
    77    41    42    1
    78    33    36    1
    79    33    34    1
    80    36    37    1
    81    49    51   ar
    82    50    51   ar
    83    37    38    1
    84    42    43    1
    85    44    43    2
    86    38    39    1
    87   114   113    1
    88    39    40    1
    89   113   112    1
    90   108   109    1
    91   112   109    1
    92   109   110    1
    93    59    58   ar
    94    60    58   ar
    95    58    57    1
    96   111   110    2
    97    57    56    1
    98   136   134   am
    99   135   134    2
   100   134   133    1
   101    52    53    1
   102    56    53    1
   103   133   132    1
   104   128   129    1
   105    69    67   ar
   106    69    71   ar
   107    53    54    1
   108    64    63    2
   109   132   129    1
   110   127   125    1
   111    67    66   ar
   112    71    70   ar
   113    55    54    2
   114   131   130    2
   115   129   130    1
   116    63    62    1
   117   125   124    2
   118   125   126    1
   119   124   123    1
   120    66    68   ar
   121    66    65    1
   122    70    68   ar
   123   122   123    1
   124   122   121    1
   125   119   118    1
   126   119   120    2
   127    62    61    1
   128    62    65    1
   129   118   121    1
   130   118   117    1
