@<TRIPOS>MOLECULE
tmp/2bhqA00.pdb
 120 114 0 0 0
SMALL
GASTEIGER

@<TRIPOS>ATOM
      1  N         30.4140   29.0950   87.0110 N.3   137  GLU137     -0.1245
      2  CA        30.1570   29.4320   88.4080 C.3   137  GLU137      0.1567
      3  C         29.6730   28.2020   89.1870 C.2   137  GLU137      0.2260
      4  O         30.0200   28.0280   90.3570 O.2   137  GLU137     -0.2867
      5  CB        29.1200   30.5490   88.4930 C.3   137  GLU137      0.0388
      6  CG        28.8650   31.0350   89.9060 C.3   137  GLU137      0.1160
      7  CD        27.9130   32.2070   89.9360 C.2   137  GLU137      0.3649
      8  OE1       28.1350   33.1630   89.1650 O.co2 137  GLU137     -0.2457
      9  OE2       26.9500   32.1740   90.7280 O.co2 137  GLU137     -0.2457
     10  N         17.0230   32.3810   86.8160 N.3   184  ASN184     -0.1225
     11  CA        18.0400   33.1760   86.1330 C.3   184  ASN184      0.1785
     12  C         19.4680   32.6190   86.1550 C.2   184  ASN184      0.2597
     13  O         20.2690   32.9490   85.2910 O.2   184  ASN184     -0.2718
     14  CB        17.9860   34.6390   86.6090 C.3   184  ASN184      0.1169
     15  CG        18.4910   34.8290   88.0200 C.2   184  ASN184      0.2627
     16  OD1       18.4460   33.9180   88.8470 O.2   184  ASN184     -0.2716
     17  ND2       18.9580   36.0390   88.3110 N.am  184  ASN184     -0.0877
     18  N         19.7820   31.7820   87.1390 N.am  185  PHE185     -0.1976
     19  CA        21.0840   31.1110   87.2150 C.3   185  PHE185      0.1639
     20  C         20.7130   29.6960   87.6370 C.2   185  PHE185      0.2290
     21  O         21.0780   29.2320   88.7200 O.2   185  PHE185     -0.2864
     22  CB        22.0060   31.7650   88.2490 C.3   185  PHE185      0.0560
     23  CG        22.5890   33.0700   87.7910 C.ar  185  PHE185     -0.0200
     24  CD1       21.9340   34.2700   88.0500 C.ar  185  PHE185     -0.0042
     25  CD2       23.7730   33.0940   87.0570 C.ar  185  PHE185     -0.0042
     26  CE1       22.4510   35.4800   87.5830 C.ar  185  PHE185     -0.0003
     27  CE2       24.2980   34.2940   86.5860 C.ar  185  PHE185     -0.0003
     28  CZ        23.6340   35.4910   86.8500 C.ar  185  PHE185     -0.0000
     29  N         23.3680   28.8140   90.6530 N.3   189  ILE189     -0.1245
     30  CA        22.7500   28.9330   91.9710 C.3   189  ILE189      0.1561
     31  C         22.0340   27.6530   92.4020 C.2   189  ILE189      0.2260
     32  O         22.0430   27.2920   93.5750 O.2   189  ILE189     -0.2867
     33  CB        21.8220   30.1640   92.0140 C.3   189  ILE189      0.0252
     34  CG1       22.6860   31.4270   91.8710 C.3   189  ILE189      0.0019
     35  CG2       21.0500   30.2130   93.3320 C.3   189  ILE189      0.0019
     36  CD1       21.9200   32.7300   91.8940 C.3   189  ILE189      0.0001
     37  N         16.4020   31.4720   96.9140 N.3   259  THR259     -0.1218
     38  CA        16.9030   32.5840   96.1190 C.3   259  THR259      0.1862
     39  C         15.7720   32.8760   95.1380 C.2   259  THR259      0.2287
     40  O         15.3550   31.9970   94.3820 O.2   259  THR259     -0.2866
     41  CB        18.1950   32.2320   95.3470 C.3   259  THR259      0.1770
     42  OG1       19.2410   31.9270   96.2790 O.3   259  THR259     -0.2211
     43  CG2       18.6370   33.4140   94.4880 C.3   259  THR259      0.0375
     44  N         17.8610   35.0240   99.5720 N.3   288  GLU288     -0.1245
     45  CA        18.5120   36.0550   98.7630 C.3   288  GLU288      0.1567
     46  C         17.3220   36.5330   97.9430 C.2   288  GLU288      0.2260
     47  O         16.7490   35.7660   97.1580 O.2   288  GLU288     -0.2867
     48  CB        19.6070   35.4690   97.8670 C.3   288  GLU288      0.0388
     49  CG        20.5230   36.5320   97.2410 C.3   288  GLU288      0.1160
     50  CD        20.1710   36.8670   95.8000 C.2   288  GLU288      0.3649
     51  OE1       20.7100   36.1980   94.8900 O.co2 288  GLU288     -0.2457
     52  OE2       19.3550   37.7890   95.5760 O.co2 288  GLU288     -0.2457
     53  N         19.0200   39.9310   86.4790 N.3   321  LYS321     -0.1231
     54  CA        19.9480   39.5370   87.5310 C.3   321  LYS321      0.1693
     55  C         19.6590   40.3700   88.7680 C.2   321  LYS321      0.2592
     56  O         19.3180   41.5490   88.6710 O.2   321  LYS321     -0.2718
     57  CB        21.4000   39.7820   87.1050 C.3   321  LYS321      0.0285
     58  CG        21.8340   39.0530   85.8390 C.3   321  LYS321      0.0035
     59  CD        23.3170   39.2820   85.5510 C.3   321  LYS321      0.0206
     60  CE        23.7340   38.5990   84.2610 C.3   321  LYS321      0.1093
     61  NZ        25.1950   38.7240   83.9950 N.3   321  LYS321     -0.1314
     62  N         19.7970   39.7570   89.9360 N.am  322  CYS322     -0.1956
     63  CA        19.5720   40.4810   91.1770 C.3   322  CYS322      0.1843
     64  C         20.6960   41.5000   91.3720 C.2   322  CYS322      0.2626
     65  O         20.5820   42.4160   92.1810 O.2   322  CYS322     -0.2714
     66  CB        19.5300   39.5050   92.3500 C.3   322  CYS322      0.0997
     67  SG        18.1990   38.2950   92.2020 S.3   322  CYS322     -0.0797
     68  N         21.7670   41.3320   90.6000 N.am  323  SER323     -0.1950
     69  CA        22.9390   42.2030   90.6410 C.3   323  SER323      0.1924
     70  C         22.9520   43.2680   89.5440 C.2   323  SER323      0.2314
     71  O         23.8270   44.1330   89.5300 O.2   323  SER323     -0.2863
     72  CB        24.1950   41.3550   90.4780 C.3   323  SER323      0.2116
     73  OG        24.1060   40.6080   89.2670 O.3   323  SER323     -0.2180
     74  N         31.5660   47.4860   93.8230 N.3   470  TYR470     -0.1241
     75  CA        32.6490   47.4320   92.8430 C.3   470  TYR470      0.1605
     76  C         33.0430   48.8190   92.3530 C.2   470  TYR470      0.2264
     77  O         32.1750   49.6450   92.0500 O.2   470  TYR470     -0.2867
     78  CB        32.2270   46.5880   91.6380 C.3   470  TYR470      0.0534
     79  CG        31.7000   45.2150   91.9900 C.ar  470  TYR470     -0.0201
     80  CD1       30.3730   45.0320   92.3900 C.ar  470  TYR470     -0.0009
     81  CD2       32.5270   44.0960   91.9240 C.ar  470  TYR470     -0.0009
     82  CE1       29.8860   43.7590   92.7160 C.ar  470  TYR470      0.0417
     83  CE2       32.0530   42.8290   92.2430 C.ar  470  TYR470      0.0417
     84  CZ        30.7350   42.6640   92.6380 C.ar  470  TYR470      0.1957
     85  OH        30.2750   41.4030   92.9510 O.3   470  TYR470     -0.2866
     86  N         29.1870   45.7040   87.9090 N.3   475  ILE475     -0.1231
     87  CA        28.7250   45.2680   89.2230 C.3   475  ILE475      0.1692
     88  C         28.0900   43.8800   89.2340 C.2   475  ILE475      0.2593
     89  O         27.5650   43.4310   90.2540 O.2   475  ILE475     -0.2718
     90  CB        27.7470   46.3000   89.8480 C.3   475  ILE475      0.0266
     91  CG1       26.4450   46.3830   89.0440 C.3   475  ILE475      0.0019
     92  CG2       28.4230   47.6680   89.8920 C.3   475  ILE475      0.0020
     93  CD1       25.3630   47.2290   89.7230 C.3   475  ILE475      0.0001
     94  N         28.1500   43.2020   88.0940 N.am  476  THR476     -0.1939
     95  CA        27.6130   41.8530   87.9750 C.3   476  THR476      0.2028
     96  C         28.7840   40.8750   87.8580 C.2   476  THR476      0.2643
     97  O         29.9450   41.2860   87.7490 O.2   476  THR476     -0.2714
     98  CB        26.7490   41.7120   86.7060 C.3   476  THR476      0.1808
     99  OG1       27.5420   42.0520   85.5600 O.3   476  THR476     -0.2208
    100  CG2       25.5350   42.6270   86.7710 C.3   476  THR476      0.0379
    101  N         28.4750   39.5840   87.8990 N.am  477  GLY477     -0.1939
    102  CA        29.5030   38.5700   87.7460 C.3   477  GLY477      0.2014
    103  C         30.4090   38.2540   88.9180 C.2   477  GLY477      0.2638
    104  O         31.5630   37.8860   88.7060 O.2   477  GLY477     -0.2714
    105  N         29.9040   38.3810   90.1410 N.am  478  ALA478     -0.1977
    106  CA        30.7150   38.0770   91.3160 C.3   478  ALA478      0.1597
    107  C         31.2980   36.6800   91.1530 C.2   478  ALA478      0.2287
    108  O         30.5840   35.7390   90.8040 O.2   478  ALA478     -0.2864
    109  CB        29.8640   38.1390   92.5790 C.3   478  ALA478      0.0319
    110  N         29.2120   36.6320   97.7980 N.3   485  PHE485     -0.1241
    111  CA        28.0010   37.2640   97.2790 C.3   485  PHE485      0.1605
    112  C         26.7650   37.1880   98.1760 C.2   485  PHE485      0.2264
    113  O         26.3260   36.1080   98.5640 O.2   485  PHE485     -0.2867
    114  CB        27.6800   36.6630   95.9040 C.3   485  PHE485      0.0534
    115  CG        26.6010   37.3960   95.1660 C.ar  485  PHE485     -0.0203
    116  CD1       26.8550   38.6340   94.5830 C.ar  485  PHE485     -0.0042
    117  CD2       25.3120   36.8760   95.1030 C.ar  485  PHE485     -0.0042
    118  CE1       25.8370   39.3450   93.9530 C.ar  485  PHE485     -0.0003
    119  CE2       24.2850   37.5840   94.4730 C.ar  485  PHE485     -0.0003
    120  CZ        24.5490   38.8160   93.9010 C.ar  485  PHE485     -0.0000
@<TRIPOS>BOND
     1    61    60    1
     2    60    59    1
     3    13    12    2
     4    59    58    1
     5    99    98    1
     6    58    57    1
     7    11    12    1
     8    11    14    1
     9    11    10    1
    10    12    18   am
    11    53    54    1
    12    27    28   ar
    13    27    25   ar
    14    14    15    1
    15    98   100    1
    16    98    95    1
    17    28    26   ar
    18     1     2    1
    19    25    23   ar
    20    57    54    1
    21    18    19    1
    22    19    20    1
    23    19    22    1
    24    54    55    1
    25    26    24   ar
    26    20    21    2
    27   102   101    1
    28   102   103    1
    29    97    96    2
    30    23    24   ar
    31    23    22    1
    32    96   101   am
    33    96    95    1
    34    86    87    1
    35    95    94    1
    36    15    17   am
    37    15    16    2
    38    94    88   am
    39     2     5    1
    40     2     3    1
    41     5     6    1
    42    56    55    2
    43   104   103    2
    44    55    62   am
    45   103   105   am
    46    91    93    1
    47    91    90    1
    48     8     7   ar
    49     3     4    2
    50    87    88    1
    51    87    90    1
    52    88    89    2
    53    73    72    1
    54    71    70    2
    55    70    69    1
    56    90    92    1
    57     6     7    1
    58    62    63    1
    59     7     9   ar
    60   105   106    1
    61    72    69    1
    62    68    69    1
    63    68    64   am
    64    29    30    1
    65   108   107    2
    66   107   106    1
    67    63    64    1
    68    63    66    1
    69   106   109    1
    70    64    65    2
    71    78    79    1
    72    78    75    1
    73    34    36    1
    74    34    33    1
    75    81    79   ar
    76    81    83   ar
    77    30    33    1
    78    30    31    1
    79    79    80   ar
    80    33    35    1
    81    77    76    2
    82    67    66    1
    83    83    84   ar
    84    76    75    1
    85    80    82   ar
    86    31    32    2
    87    84    82   ar
    88    84    85    1
    89    75    74    1
    90   120   118   ar
    91   120   119   ar
    92   118   116   ar
    93    40    39    2
    94   119   117   ar
    95    43    41    1
    96   116   115   ar
    97    51    50   ar
    98   117   115   ar
    99    39    38    1
   100   115   114    1
   101    41    38    1
   102    41    42    1
   103    52    50   ar
   104    50    49    1
   105   114   111    1
   106    38    37    1
   107    47    46    2
   108    49    48    1
   109   111   110    1
   110   111   112    1
   111    48    45    1
   112    46    45    1
   113   112   113    2
   114    45    44    1
