@<TRIPOS>MOLECULE
tmp/2bhyA03.pdb
 125 119 0 0 0
SMALL
GASTEIGER

@<TRIPOS>ATOM
      1  N         46.4960    8.8910   13.5990 N.3   257  ALA257     -0.1245
      2  CA        45.4070    8.1960   12.9220 C.3   257  ALA257      0.1562
      3  C         45.1660    8.5720   11.4700 C.2   257  ALA257      0.2260
      4  O         44.0670    8.9440   11.0440 O.2   257  ALA257     -0.2867
      5  CB        44.1490    8.3190   13.7250 C.3   257  ALA257      0.0290
      6  N         42.2200    7.6560    9.0840 N.3   260  TYR260     -0.1241
      7  CA        40.9380    8.3600    9.2560 C.3   260  TYR260      0.1605
      8  C         40.9860    9.7900    8.7420 C.2   260  TYR260      0.2264
      9  O         40.0640   10.5700    8.9800 O.2   260  TYR260     -0.2867
     10  CB        40.4710    8.2590   10.7060 C.3   260  TYR260      0.0534
     11  CG        40.5110    6.7970   11.1350 C.ar  260  TYR260     -0.0201
     12  CD1       39.5870    5.8800   10.6360 C.ar  260  TYR260     -0.0009
     13  CD2       41.5330    6.3210   11.9230 C.ar  260  TYR260     -0.0009
     14  CE1       39.6520    4.5420   10.9830 C.ar  260  TYR260      0.0417
     15  CE2       41.6100    4.9820   12.2830 C.ar  260  TYR260      0.0417
     16  CZ        40.6650    4.1030   11.8150 C.ar  260  TYR260      0.1957
     17  OH        40.7630    2.7690   12.1700 O.3   260  TYR260     -0.2866
     18  N         51.0170    7.6580   12.0510 N.3   288  GLU288     -0.1245
     19  CA        50.4720    6.5910   12.8700 C.3   288  GLU288      0.1567
     20  C         49.3870    5.8880   12.0710 C.2   288  GLU288      0.2260
     21  O         48.2680    6.3790   11.9780 O.2   288  GLU288     -0.2867
     22  CB        49.8760    7.1030   14.1800 C.3   288  GLU288      0.0388
     23  CG        49.5430    5.9460   15.1180 C.3   288  GLU288      0.1160
     24  CD        48.2500    6.0640   15.8890 C.2   288  GLU288      0.3649
     25  OE1       48.0630    5.2370   16.8170 O.co2 288  GLU288     -0.2457
     26  OE2       47.4180    6.9120   15.5850 O.co2 288  GLU288     -0.2457
     27  N         47.7140    1.9890   10.8440 N.3   290  HIS290     -0.1241
     28  CA        47.6360    0.5600   11.0980 C.3   290  HIS290      0.1621
     29  C         47.4210   -0.2830    9.8530 C.2   290  HIS290      0.2264
     30  O         47.3120   -1.5130    9.9470 O.2   290  HIS290     -0.2867
     31  CB        46.5550    0.2480   12.1280 C.3   290  HIS290      0.0745
     32  CG        45.1970    0.6880   11.7330 C.ar  290  HIS290      0.0817
     33  ND1       44.5000    0.1160   10.6910 N.ar  290  HIS290     -0.2268
     34  CD2       44.3760    1.6210   12.2720 C.ar  290  HIS290      0.1154
     35  CE1       43.3220    0.7090   10.5820 C.ar  290  HIS290      0.1986
     36  NE2       43.2300    1.6300   11.5240 N.ar  290  HIS290     -0.2212
     37  N         52.7230   -1.1100   14.5810 N.3   308  ASP308     -0.1239
     38  CA        52.4700   -1.7780   15.8510 C.3   308  ASP308      0.1674
     39  C         52.6320   -3.3080   15.8050 C.2   308  ASP308      0.2266
     40  O         52.6210   -3.9300   16.8680 O.2   308  ASP308     -0.2867
     41  CB        51.0290   -1.5280   16.3270 C.3   308  ASP308      0.1410
     42  CG        50.7190   -0.1020   16.7260 C.2   308  ASP308      0.3668
     43  OD1       51.6110    0.6310   17.1520 O.co2 308  ASP308     -0.2456
     44  OD2       49.5290    0.2950   16.7510 O.co2 308  ASP308     -0.2456
     45  N         52.9710   -5.5460   19.2330 N.3   312  HIS312     -0.1241
     46  CA        51.9460   -6.5050   19.6250 C.3   312  HIS312      0.1621
     47  C         52.5400   -7.8950   19.7310 C.2   312  HIS312      0.2264
     48  O         52.2880   -8.6390   20.6870 O.2   312  HIS312     -0.2867
     49  CB        50.8070   -6.5200   18.6130 C.3   312  HIS312      0.0745
     50  CG        50.0790   -5.2240   18.5030 C.ar  312  HIS312      0.0817
     51  ND1       50.2370   -4.1880   19.3990 N.ar  312  HIS312     -0.2268
     52  CD2       49.1810   -4.7970   17.5820 C.ar  312  HIS312      0.1154
     53  CE1       49.4410   -3.1900   19.0460 C.ar  312  HIS312      0.1986
     54  NE2       48.7970   -3.5310   17.9390 N.ar  312  HIS312     -0.2212
     55  N         42.8470   -6.6590   19.7390 N.3   325  TYR325     -0.1241
     56  CA        43.7840   -6.8500   18.6110 C.3   325  TYR325      0.1605
     57  C         44.9330   -7.8040   18.9380 C.2   325  TYR325      0.2264
     58  O         45.5930   -8.2950   18.0170 O.2   325  TYR325     -0.2867
     59  CB        44.3280   -5.5100   18.1160 C.3   325  TYR325      0.0534
     60  CG        44.8970   -4.5900   19.1750 C.ar  325  TYR325     -0.0201
     61  CD1       46.1640   -4.7750   19.7030 C.ar  325  TYR325     -0.0009
     62  CD2       44.1620   -3.5100   19.6230 C.ar  325  TYR325     -0.0009
     63  CE1       46.6730   -3.9280   20.6640 C.ar  325  TYR325      0.0417
     64  CE2       44.6830   -2.6320   20.5900 C.ar  325  TYR325      0.0417
     65  CZ        45.9430   -2.8550   21.1000 C.ar  325  TYR325      0.1957
     66  OH        46.4430   -1.9710   22.0580 O.3   325  TYR325     -0.2866
     67  N         43.0320  -10.9800    8.6330 N.3   351  TRP351     -0.1241
     68  CA        43.0850  -10.5210   10.0010 C.3   351  TRP351      0.1605
     69  C         41.7690  -11.0070   10.5990 C.2   351  TRP351      0.2264
     70  O         40.6960  -10.5370   10.1970 O.2   351  TRP351     -0.2867
     71  CB        43.1660   -9.0020    9.9710 C.3   351  TRP351      0.0550
     72  CG        43.0330   -8.2360   11.2510 C.ar  351  TRP351      0.0003
     73  CD1       41.9590   -7.5070   11.6530 C.ar  351  TRP351      0.0946
     74  CD2       44.0530   -8.0200   12.2420 C.ar  351  TRP351      0.0152
     75  NE1       42.2310   -6.8710   12.8400 N.ar  351  TRP351     -0.2442
     76  CE2       43.5130   -7.1790   13.2220 C.ar  351  TRP351      0.0810
     77  CE3       45.3730   -8.4630   12.4020 C.ar  351  TRP351      0.0012
     78  CZ2       44.2370   -6.7650   14.3240 C.ar  351  TRP351      0.0191
     79  CZ3       46.0850   -8.0470   13.5020 C.ar  351  TRP351      0.0001
     80  CH2       45.5180   -7.2170   14.4500 C.ar  351  TRP351      0.0015
     81  N         36.5740   -7.0660   13.1970 N.3   356  GLU356     -0.1245
     82  CA        37.5180   -6.3430   12.3420 C.3   356  GLU356      0.1567
     83  C         37.9580   -7.1590   11.1340 C.2   356  GLU356      0.2260
     84  O         38.9600   -6.8330   10.5240 O.2   356  GLU356     -0.2867
     85  CB        38.8010   -6.0130   13.1340 C.3   356  GLU356      0.0388
     86  CG        38.5950   -5.1560   14.3600 C.3   356  GLU356      0.1160
     87  CD        39.8930   -4.6170   14.9590 C.2   356  GLU356      0.3649
     88  OE1       41.0020   -4.8580   14.4260 O.co2 356  GLU356     -0.2457
     89  OE2       39.8010   -3.9090   15.9880 O.co2 356  GLU356     -0.2457
     90  N         44.2930   -7.8080    5.5960 N.3   360  ARG360     -0.1245
     91  CA        45.0040   -6.6750    6.1600 C.3   360  ARG360      0.1563
     92  C         46.4180   -6.5680    5.6350 C.2   360  ARG360      0.2260
     93  O         47.2060   -7.5140    5.7170 O.2   360  ARG360     -0.2867
     94  CB        45.0580   -6.8110    7.6750 C.3   360  ARG360      0.0307
     95  CG        45.7550   -5.6760    8.3780 C.3   360  ARG360      0.0489
     96  CD        45.6990   -5.7720    9.8980 C.3   360  ARG360      0.2205
     97  NE        46.4730   -4.6590   10.4430 N.pl3 360  ARG360     -0.0865
     98  CZ        47.5680   -4.7500   11.1780 C.cat 360  ARG360      0.5346
     99  NH1       48.0400   -5.9090   11.5900 N.pl3 360  ARG360      0.1354
    100  NH2       48.2090   -3.6350   11.5060 N.pl3 360  ARG360      0.1354
    101  N         49.5190    4.8780   23.8850 N.3   380  ASP380     -0.1225
    102  CA        48.3300    4.0830   23.6540 C.3   380  ASP380      0.1805
    103  C         48.4770    2.6890   24.2310 C.2   380  ASP380      0.2597
    104  O         47.5410    2.1560   24.8140 O.2   380  ASP380     -0.2718
    105  CB        48.0290    3.9590   22.1600 C.3   380  ASP380      0.1424
    106  CG        47.1860    5.0930   21.6050 C.2   380  ASP380      0.3668
    107  OD1       46.3660    5.6890   22.3170 O.co2 380  ASP380     -0.2456
    108  OD2       47.2300    5.3640   20.3880 O.co2 380  ASP380     -0.2456
    109  N         49.6420    2.0900   24.0800 N.am  381  GLN381     -0.1979
    110  CA        49.8010    0.6920   24.4630 C.3   381  GLN381      0.1601
    111  C         49.9910    0.5320   25.9720 C.2   381  GLN381      0.2287
    112  O         49.9820   -0.5970   26.4820 O.2   381  GLN381     -0.2864
    113  CB        50.9690    0.0680   23.7090 C.3   381  GLN381      0.0394
    114  CG        50.8100    0.1020   22.1850 C.3   381  GLN381      0.0908
    115  CD        49.4730   -0.4260   21.7040 C.2   381  GLN381      0.2608
    116  OE1       48.9270   -1.3670   22.2770 O.2   381  GLN381     -0.2717
    117  NE2       48.9420    0.1770   20.6400 N.am  381  GLN381     -0.0878
    118  N         45.6960    2.6570   26.9910 N.3   384  ASN384     -0.1240
    119  CA        44.4270    2.0640   26.5690 C.3   384  ASN384      0.1653
    120  C         44.1140    0.7550   27.3180 C.2   384  ASN384      0.2266
    121  O         43.1200    0.0860   27.0220 O.2   384  ASN384     -0.2867
    122  CB        44.3700    1.9060   25.0420 C.3   384  ASN384      0.1155
    123  CG        44.4710    3.2470   24.2960 C.2   384  ASN384      0.2627
    124  OD1       44.0770    4.3050   24.7970 O.2   384  ASN384     -0.2716
    125  ND2       45.0020    3.1980   23.0830 N.am  384  ASN384     -0.0877
@<TRIPOS>BOND
     1    90    91    1
     2    92    93    2
     3    92    91    1
     4    91    94    1
     5    94    95    1
     6    95    96    1
     7    67    68    1
     8     8     9    2
     9     8     7    1
    10     6     7    1
    11     7    10    1
    12    29    30    2
    13    29    28    1
    14    96    97    1
    15    71    68    1
    16    71    72    1
    17    68    69    1
    18    70    69    2
    19    97    98    2
    20    84    83    2
    21    35    33   ar
    22    35    36   ar
    23    12    14   ar
    24    12    11   ar
    25    33    32   ar
    26    10    11    1
    27    27    28    1
    28    14    16   ar
    29     4     3    2
    30    28    31    1
    31    83    82    1
    32    11    13   ar
    33    98   100    1
    34    98    99    1
    35    72    73   ar
    36    72    74   ar
    37     3     2    1
    38    36    34   ar
    39    73    75   ar
    40    32    31    1
    41    32    34   ar
    42    16    17    1
    43    16    15   ar
    44    13    15   ar
    45    21    20    2
    46    18    19    1
    47    20    19    1
    48    74    77   ar
    49    74    76   ar
    50    82    85    1
    51    82    81    1
    52    77    79   ar
    53    75    76   ar
    54    19    22    1
    55     2     1    1
    56     2     5    1
    57    85    86    1
    58    76    78   ar
    59    79    80   ar
    60    22    23    1
    61    78    80   ar
    62    86    87    1
    63    88    87   ar
    64    37    38    1
    65    87    89   ar
    66    23    24    1
    67    26    24   ar
    68    39    38    1
    69    39    40    2
    70    38    41    1
    71    24    25   ar
    72    41    42    1
    73    42    44   ar
    74    42    43   ar
    75    52    54   ar
    76    52    50   ar
    77    54    53   ar
    78    58    57    2
    79    59    56    1
    80    59    60    1
    81    50    49    1
    82    50    51   ar
    83    56    57    1
    84    56    55    1
    85    49    46    1
    86    53    51   ar
    87    60    62   ar
    88    60    61   ar
    89    45    46    1
    90    62    64   ar
    91    46    47    1
    92    61    63   ar
    93    47    48    2
    94   108   106   ar
    95    64    65   ar
    96   117   115   am
    97    63    65   ar
    98    65    66    1
    99   106   105    1
   100   106   107   ar
   101   115   114    1
   102   115   116    2
   103   105   102    1
   104   114   113    1
   105   125   123   am
   106   102   101    1
   107   102   103    1
   108   113   110    1
   109   109   103   am
   110   109   110    1
   111   103   104    2
   112   123   124    2
   113   123   122    1
   114   110   111    1
   115   122   119    1
   116   111   112    2
   117   119   118    1
   118   119   120    1
   119   121   120    2
