@<TRIPOS>MOLECULE
tmp/2bhyA07.pdb
 91 89 0 0 0
SMALL
GASTEIGER

@<TRIPOS>ATOM
      1  N         59.7900  -17.7060   17.0820 N.3   334  GLU334     -0.1245
      2  CA        59.5600  -17.8940   15.6500 C.3   334  GLU334      0.1567
      3  C         58.7410  -16.7380   15.1060 C.2   334  GLU334      0.2260
      4  O         59.0830  -16.1470   14.0840 O.2   334  GLU334     -0.2867
      5  CB        58.8310  -19.2180   15.4090 C.3   334  GLU334      0.0388
      6  CG        58.6560  -19.5910   13.9540 C.3   334  GLU334      0.1160
      7  CD        58.2450  -21.0390   13.7880 C.2   334  GLU334      0.3649
      8  OE1       57.5100  -21.5630   14.6760 O.co2 334  GLU334     -0.2457
      9  OE2       58.6550  -21.6440   12.7670 O.co2 334  GLU334     -0.2457
     10  N         59.8490  -13.7320   12.3420 N.3   338  TYR338     -0.1241
     11  CA        59.0750  -13.4700   11.1140 C.3   338  TYR338      0.1605
     12  C         58.6780  -12.0050   11.0090 C.2   338  TYR338      0.2264
     13  O         58.8720  -11.3620    9.9660 O.2   338  TYR338     -0.2867
     14  CB        57.8210  -14.3540   11.0630 C.3   338  TYR338      0.0534
     15  CG        57.0780  -14.1830    9.7650 C.ar  338  TYR338     -0.0201
     16  CD1       57.4050  -14.9260    8.6520 C.ar  338  TYR338     -0.0009
     17  CD2       56.0560  -13.2500    9.6620 C.ar  338  TYR338     -0.0009
     18  CE1       56.7040  -14.7470    7.4650 C.ar  338  TYR338      0.0417
     19  CE2       55.3480  -13.0790    8.4690 C.ar  338  TYR338      0.0417
     20  CZ        55.7090  -13.8220    7.3790 C.ar  338  TYR338      0.1957
     21  OH        55.0480  -13.6600    6.1700 O.3   338  TYR338     -0.2866
     22  N         61.6590   -9.8910   10.1880 N.3   341  ARG341     -0.1245
     23  CA        62.0620  -10.2070    8.7970 C.3   341  ARG341      0.1563
     24  C         61.2280   -9.4300    7.7960 C.2   341  ARG341      0.2260
     25  O         61.7260   -8.9100    6.7970 O.2   341  ARG341     -0.2867
     26  CB        61.8610  -11.7040    8.5540 C.3   341  ARG341      0.0307
     27  CG        62.4430  -12.2560    7.2790 C.3   341  ARG341      0.0489
     28  CD        62.4150  -13.7900    7.1970 C.3   341  ARG341      0.2205
     29  NE        63.0170  -14.4130    8.3850 N.pl3 341  ARG341     -0.0865
     30  CZ        62.4240  -15.2690    9.2140 C.cat 341  ARG341      0.5346
     31  NH1       61.1800  -15.7050    9.0270 N.pl3 341  ARG341      0.1354
     32  NH2       63.1000  -15.7030   10.2680 N.pl3 341  ARG341      0.1354
     33  N         67.0080  -13.0790   10.6560 N.3   507  THR507     -0.1203
     34  CA        66.4730  -13.5380   11.9180 C.3   507  THR507      0.1994
     35  C         66.1410  -15.0090   11.8640 C.2   507  THR507      0.2618
     36  O         65.9370  -15.5840   10.7950 O.2   507  THR507     -0.2717
     37  CB        65.1790  -12.7960   12.2680 C.3   507  THR507      0.1784
     38  OG1       64.1790  -13.0990   11.3000 O.3   507  THR507     -0.2211
     39  CG2       65.3660  -11.2920   12.2610 C.3   507  THR507      0.0376
     40  N         66.0140  -15.6020   13.0420 N.am  508  GLY508     -0.1942
     41  CA        65.6040  -16.9800   13.1380 C.3   508  GLY508      0.2014
     42  C         65.3630  -17.3520   14.5800 C.2   508  GLY508      0.2639
     43  O         65.3270  -16.4990   15.4670 O.2   508  GLY508     -0.2714
     44  N         65.1550  -18.6450   14.8160 N.am  509  HIS509     -0.1959
     45  CA        64.8950  -19.1360   16.1610 C.3   509  HIS509      0.1787
     46  C         65.4210  -20.5480   16.3280 C.2   509  HIS509      0.2620
     47  O         65.6130  -21.2790   15.3680 O.2   509  HIS509     -0.2715
     48  CB        63.3970  -19.1070   16.4860 C.3   509  HIS509      0.0785
     49  CG        62.6270  -20.1190   15.7130 C.ar  509  HIS509      0.0821
     50  ND1       62.1700  -21.3080   16.2460 N.ar  509  HIS509     -0.2267
     51  CD2       62.2900  -20.1340   14.4080 C.ar  509  HIS509      0.1154
     52  CE1       61.5760  -22.0060   15.2860 C.ar  509  HIS509      0.1986
     53  NE2       61.6310  -21.3120   14.1680 N.ar  509  HIS509     -0.2212
     54  N         65.6180  -20.9090   17.5850 N.am  510  ASP510     -0.1971
     55  CA        65.8430  -22.3010   17.9840 C.3   510  ASP510      0.1709
     56  C         64.9970  -22.4740   19.2250 C.2   510  ASP510      0.2293
     57  O         65.3360  -21.9550   20.2830 O.2   510  ASP510     -0.2864
     58  CB        67.3040  -22.5810   18.2440 C.3   510  ASP510      0.1436
     59  CG        67.5450  -23.9750   18.7590 C.2   510  ASP510      0.3671
     60  OD1       66.5810  -24.7930   18.7580 O.co2 510  ASP510     -0.2456
     61  OD2       68.6550  -24.3170   19.2140 O.co2 510  ASP510     -0.2456
     62  N         67.0770  -15.2700   17.5020 N.3   515  TRP515     -0.1241
     63  CA        68.3320  -14.6350   17.0760 C.3   515  TRP515      0.1605
     64  C         68.1090  -13.5950   15.9720 C.2   515  TRP515      0.2264
     65  O         67.2310  -13.7520   15.0960 O.2   515  TRP515     -0.2867
     66  CB        69.4080  -15.6300   16.6580 C.3   515  TRP515      0.0550
     67  CG        69.1110  -16.5210   15.5090 C.ar  515  TRP515      0.0003
     68  CD1       68.6680  -17.8130   15.5690 C.ar  515  TRP515      0.0946
     69  CD2       69.2920  -16.2320   14.1130 C.ar  515  TRP515      0.0152
     70  NE1       68.5480  -18.3290   14.3040 N.ar  515  TRP515     -0.2442
     71  CE2       68.9330  -17.3830   13.3900 C.ar  515  TRP515      0.0810
     72  CE3       69.7320  -15.1100   13.4010 C.ar  515  TRP515      0.0012
     73  CZ2       68.9670  -17.4310   12.0050 C.ar  515  TRP515      0.0191
     74  CZ3       69.7510  -15.1510   12.0320 C.ar  515  TRP515      0.0001
     75  CH2       69.4030  -16.3060   11.3410 C.ar  515  TRP515      0.0015
     76  N         71.1760  -23.7940   18.0910 N.3   542  LYS542     -0.1245
     77  CA        71.4160  -24.2300   16.7180 C.3   542  LYS542      0.1561
     78  C         71.2200  -23.0510   15.7740 C.2   542  LYS542      0.2260
     79  O         70.1310  -22.4630   15.7200 O.2   542  LYS542     -0.2867
     80  CB        70.4700  -25.3770   16.3250 C.3   542  LYS542      0.0271
     81  CG        70.5950  -26.6550   17.1580 C.3   542  LYS542      0.0035
     82  CD        69.6190  -27.7200   16.6510 C.3   542  LYS542      0.0206
     83  CE        69.4330  -28.8750   17.6340 C.3   542  LYS542      0.1093
     84  NZ        68.1770  -29.6450   17.3380 N.3   542  LYS542     -0.1314
     85  N         72.2960  -21.3500   11.7040 N.3   544  PRO544     -0.2116
     86  CA        72.7900  -21.6420   10.3460 C.3   544  PRO544      0.1372
     87  C         74.0960  -20.9250    9.9710 C.2   544  PRO544      0.2244
     88  O         74.4230  -20.8070    8.7800 O.2   544  PRO544     -0.2868
     89  CB        71.6500  -21.1480    9.4720 C.3   544  PRO544      0.0268
     90  CG        71.0990  -19.9780   10.2450 C.3   544  PRO544      0.0207
     91  CD        71.1940  -20.3640   11.6840 C.3   544  PRO544      0.0892
@<TRIPOS>BOND
     1    21    20    1
     2    25    24    2
     3    28    27    1
     4    28    29    1
     5    27    26    1
     6    20    18   ar
     7    20    19   ar
     8    18    16   ar
     9    24    23    1
    10    29    30    2
    11    19    17   ar
    12    26    23    1
    13    16    15   ar
    14    88    87    2
    15    23    22    1
    16    31    30    1
    17    30    32    1
    18    89    90    1
    19    89    86    1
    20    17    15   ar
    21    15    14    1
    22    13    12    2
    23    87    86    1
    24    90    91    1
    25    86    85    1
    26    33    34    1
    27    36    35    2
    28    12    11    1
    29    14    11    1
    30    11    10    1
    31    38    37    1
    32    75    73   ar
    33    75    74   ar
    34    91    85    1
    35    35    34    1
    36    35    40   am
    37    34    37    1
    38    73    71   ar
    39    74    72   ar
    40    39    37    1
    41     9     7   ar
    42    40    41    1
    43    41    42    1
    44    71    69   ar
    45    71    70   ar
    46    72    69   ar
    47     7     6    1
    48     7     8   ar
    49     6     5    1
    50     4     3    2
    51    69    67   ar
    52    53    51   ar
    53    53    52   ar
    54    70    68   ar
    55    51    49   ar
    56    42    44   am
    57    42    43    2
    58    44    45    1
    59    65    64    2
    60     3     2    1
    61    52    50   ar
    62    47    46    2
    63     5     2    1
    64    67    68   ar
    65    67    66    1
    66     2     1    1
    67    49    50   ar
    68    49    48    1
    69    79    78    2
    70    78    77    1
    71    64    63    1
    72    45    46    1
    73    45    48    1
    74    80    77    1
    75    80    81    1
    76    46    54   am
    77    82    81    1
    78    82    83    1
    79    66    63    1
    80    77    76    1
    81    63    62    1
    82    84    83    1
    83    54    55    1
    84    55    58    1
    85    55    56    1
    86    58    59    1
    87    60    59   ar
    88    59    61   ar
    89    56    57    2
