@<TRIPOS>MOLECULE
tmp/2bhyA08.pdb
 108 101 0 0 0
SMALL
GASTEIGER

@<TRIPOS>ATOM
      1  N         71.8430   24.2800   14.1650 N.3   105  TRP105     -0.1241
      2  CA        71.0850   23.0220   14.1210 C.3   105  TRP105      0.1605
      3  C         70.4390   22.8520   12.7560 C.2   105  TRP105      0.2264
      4  O         69.7950   23.7660   12.2660 O.2   105  TRP105     -0.2867
      5  CB        70.0170   23.0440   15.2140 C.3   105  TRP105      0.0550
      6  CG        69.0540   21.9120   15.1340 C.ar  105  TRP105      0.0003
      7  CD1       67.7760   21.9650   14.6670 C.ar  105  TRP105      0.0946
      8  CD2       69.2860   20.5550   15.5160 C.ar  105  TRP105      0.0152
      9  NE1       67.2030   20.7180   14.7180 N.ar  105  TRP105     -0.2442
     10  CE2       68.0930   19.8400   15.2630 C.ar  105  TRP105      0.0810
     11  CE3       70.3780   19.8620   16.0530 C.ar  105  TRP105      0.0012
     12  CZ2       67.9680   18.4840   15.5080 C.ar  105  TRP105      0.0191
     13  CZ3       70.2530   18.5000   16.3100 C.ar  105  TRP105      0.0001
     14  CH2       69.0630   17.8290   16.0310 C.ar  105  TRP105      0.0015
     15  N         68.4440   19.9250   11.7930 N.3   107  GLY107     -0.1210
     16  CA        67.5240   18.8050   11.8370 C.3   107  GLY107      0.1956
     17  C         68.2140   17.4880   12.1280 C.2   107  GLY107      0.2612
     18  O         69.3880   17.4260   12.4510 O.2   107  GLY107     -0.2717
     19  N         67.4450   16.4170   11.9780 N.am  108  ILE108     -0.1965
     20  CA        67.9370   15.0790   12.2550 C.3   108  ILE108      0.1727
     21  C         67.2900   14.1370   11.2600 C.2   108  ILE108      0.2616
     22  O         66.1050   14.2550   10.9800 O.2   108  ILE108     -0.2715
     23  CB        67.6370   14.6720   13.7320 C.3   108  ILE108      0.0290
     24  CG1       68.2520   13.3050   14.0550 C.3   108  ILE108      0.0022
     25  CG2       66.1420   14.6450   14.0300 C.3   108  ILE108      0.0023
     26  CD1       68.3410   12.9990   15.5180 C.3   108  ILE108      0.0001
     27  N         68.0690   13.1940   10.7380 N.am  109  LYS109     -0.1977
     28  CA        67.5360   12.1920    9.8170 C.3   109  LYS109      0.1596
     29  C         66.8000   11.1010   10.5820 C.2   109  LYS109      0.2287
     30  O         67.1480   10.7880   11.7160 O.2   109  LYS109     -0.2864
     31  CB        68.6830   11.5800    9.0160 C.3   109  LYS109      0.0298
     32  CG        69.3480   12.5660    8.0700 C.3   109  LYS109      0.0038
     33  CD        70.5520   11.9260    7.4260 C.3   109  LYS109      0.0206
     34  CE        71.1990   12.8360    6.3970 C.3   109  LYS109      0.1093
     35  NZ        71.5310   14.1720    6.9710 N.3   109  LYS109     -0.1314
     36  N         66.8700    7.9250   10.2040 N.3   111  ALA111     -0.1231
     37  CA        67.7710    6.8320   10.5410 C.3   111  ALA111      0.1694
     38  C         68.6260    7.0760   11.7800 C.2   111  ALA111      0.2592
     39  O         69.2380    6.1580   12.3180 O.2   111  ALA111     -0.2718
     40  CB        68.6710    6.5210    9.3580 C.3   111  ALA111      0.0304
     41  N         68.6990    8.3300   12.2000 N.am  112  ASP112     -0.1974
     42  CA        69.4250    8.7230   13.4070 C.3   112  ASP112      0.1709
     43  C         68.5350    8.9860   14.6180 C.2   112  ASP112      0.2293
     44  O         69.0380    9.2940   15.6920 O.2   112  ASP112     -0.2864
     45  CB        70.2560    9.9800   13.1180 C.3   112  ASP112      0.1436
     46  CG        71.3410    9.7480   12.1000 C.2   112  ASP112      0.3671
     47  OD1       71.9510    8.6520   12.1100 O.co2 112  ASP112     -0.2456
     48  OD2       71.6400   10.6250   11.2570 O.co2 112  ASP112     -0.2456
     49  N         66.2230    8.1530   17.7860 N.3   114  VAL114     -0.1245
     50  CA        65.7320    7.3060   18.8500 C.3   114  VAL114      0.1561
     51  C         64.7660    8.2320   19.5700 C.2   114  VAL114      0.2260
     52  O         65.1550    9.2270   20.1940 O.2   114  VAL114     -0.2867
     53  CB        66.8400    6.8680   19.8170 C.3   114  VAL114      0.0252
     54  CG1       66.2600    6.0180   20.9330 C.3   114  VAL114      0.0019
     55  CG2       67.9340    6.0660   19.0980 C.3   114  VAL114      0.0019
     56  N         69.7680   13.7770   26.9180 N.3   140  LYS140     -0.1245
     57  CA        70.9490   13.7450   26.0700 C.3   140  LYS140      0.1561
     58  C         71.9330   12.6810   26.5590 C.2   140  LYS140      0.2260
     59  O         72.4650   11.8920   25.7640 O.2   140  LYS140     -0.2867
     60  CB        71.6330   15.1140   26.0600 C.3   140  LYS140      0.0271
     61  CG        72.8980   15.1590   25.2220 C.3   140  LYS140      0.0035
     62  CD        72.6160   15.0700   23.7590 C.3   140  LYS140      0.0206
     63  CE        73.8840   15.3440   22.9150 C.3   140  LYS140      0.1093
     64  NZ        73.5420   15.3960   21.4720 N.3   140  LYS140     -0.1314
     65  N         67.7040   10.6810   20.9550 N.3   145  THR145     -0.1218
     66  CA        68.0940   11.7650   20.0390 C.3   145  THR145      0.1862
     67  C         66.9550   12.6470   19.5520 C.2   145  THR145      0.2287
     68  O         67.1960   13.6690   18.9270 O.2   145  THR145     -0.2866
     69  CB        68.8540   11.2170   18.8350 C.3   145  THR145      0.1770
     70  OG1       67.9910   10.3780   18.0620 O.3   145  THR145     -0.2211
     71  CG2       70.0570   10.3520   19.2590 C.3   145  THR145      0.0375
     72  N         71.5840   19.2830   20.7400 N.3   190  GLY190     -0.1225
     73  CA        71.6750   18.3700   19.6290 C.3   190  GLY190      0.1811
     74  C         70.5490   17.3550   19.6030 C.2   190  GLY190      0.2280
     75  O         70.6910   16.2840   18.9880 O.2   190  GLY190     -0.2866
     76  N         74.3240    1.4150   20.4510 N.3   491  ARG491     -0.1231
     77  CA        73.6570    1.7870   19.2030 C.3   491  ARG491      0.1694
     78  C         74.4310    2.9160   18.5130 C.2   491  ARG491      0.2591
     79  O         74.6390    2.8660   17.2890 O.2   491  ARG491     -0.2718
     80  CB        72.2080    2.1680   19.4870 C.3   491  ARG491      0.0321
     81  CG        71.3930    2.3940   18.2490 C.3   491  ARG491      0.0489
     82  CD        69.9810    2.8710   18.5240 C.3   491  ARG491      0.2205
     83  NE        69.2300    2.9880   17.2680 N.pl3 491  ARG491     -0.0865
     84  CZ        68.6420    1.9710   16.6490 C.cat 491  ARG491      0.5346
     85  NH1       68.6460    0.7800   17.1880 N.pl3 491  ARG491      0.1354
     86  NH2       68.0140    2.1640   15.4980 N.pl3 491  ARG491      0.1354
     87  N         74.8790    3.9000   19.2950 N.am  492  ARG492     -0.1980
     88  CA        75.5960    5.0710   18.7960 C.3   492  ARG492      0.1597
     89  C         76.9930    4.7010   18.3110 C.2   492  ARG492      0.2287
     90  O         77.4520    5.2090   17.2920 O.2   492  ARG492     -0.2864
     91  CB        75.6680    6.1600   19.8920 C.3   492  ARG492      0.0334
     92  CG        76.5730    7.3530   19.6260 C.3   492  ARG492      0.0492
     93  CD        76.4700    8.4610   20.6820 C.3   492  ARG492      0.2205
     94  NE        77.0080    8.0930   22.0010 N.pl3 492  ARG492     -0.0865
     95  CZ        76.2970    7.7880   23.0950 C.cat 492  ARG492      0.5346
     96  NH1       74.9650    7.7630   23.1030 N.pl3 492  ARG492      0.1354
     97  NH2       76.9390    7.4870   24.2190 N.pl3 492  ARG492      0.1354
     98  N         71.5430    0.2090    8.5750 N.3   500  ARG500     -0.1245
     99  CA        70.1570    0.6530    8.4170 C.3   500  ARG500      0.1563
    100  C         69.5180    0.0210    7.1760 C.2   500  ARG500      0.2260
    101  O         68.5690    0.5610    6.6300 O.2   500  ARG500     -0.2867
    102  CB        70.0670    2.1850    8.3880 C.3   500  ARG500      0.0307
    103  CG        70.4510    2.8500    9.6790 C.3   500  ARG500      0.0489
    104  CD        69.4250    2.6310   10.7640 C.3   500  ARG500      0.2205
    105  NE        69.7040    3.3510   11.9910 N.pl3 500  ARG500     -0.0865
    106  CZ        70.5600    2.9760   12.9210 C.cat 500  ARG500      0.5346
    107  NH1       71.1990    1.8360   12.8380 N.pl3 500  ARG500      0.1354
    108  NH2       70.7490    3.7630   13.9750 N.pl3 500  ARG500      0.1354
@<TRIPOS>BOND
     1    34    35    1
     2    34    33    1
     3   101   100    2
     4   100    99    1
     5    33    32    1
     6    32    31    1
     7   102    99    1
     8   102   103    1
     9    99    98    1
    10    31    28    1
    11    40    37    1
    12   103   104    1
    13    28    29    1
    14    28    27    1
    15    36    37    1
    16    37    38    1
    17    29    30    2
    18    27    21   am
    19   104   105    1
    20    22    21    2
    21    48    46   ar
    22    21    20    1
    23    38    41   am
    24    38    39    2
    25    15    16    1
    26    16    17    1
    27    19    17   am
    28    19    20    1
    29   105   106    2
    30    46    47   ar
    31    46    45    1
    32    17    18    2
    33    41    42    1
    34    20    23    1
    35     4     3    2
    36     3     2    1
    37   107   106    1
    38   106   108    1
    39    45    42    1
    40    42    43    1
    41    23    25    1
    42    23    24    1
    43    24    26    1
    44     2     1    1
    45     2     5    1
    46    43    44    2
    47     7     9   ar
    48     7     6   ar
    49     9    10   ar
    50     6     5    1
    51     6     8   ar
    52    10    12   ar
    53    10     8   ar
    54    86    84    1
    55    12    14   ar
    56     8    11   ar
    57    14    13   ar
    58    11    13   ar
    59    84    85    1
    60    84    83    2
    61    83    82    1
    62    79    78    2
    63    90    89    2
    64    49    50    1
    65    70    69    1
    66    81    82    1
    67    81    80    1
    68    89    88    1
    69    78    77    1
    70    78    87   am
    71    88    87    1
    72    88    91    1
    73    69    71    1
    74    69    66    1
    75    50    51    1
    76    50    53    1
    77    68    67    2
    78    75    74    2
    79    55    53    1
    80    77    80    1
    81    77    76    1
    82    67    66    1
    83    51    52    2
    84    74    73    1
    85    92    91    1
    86    92    93    1
    87    73    72    1
    88    53    54    1
    89    66    65    1
    90    93    94    1
    91    64    63    1
    92    94    95    2
    93    63    62    1
    94    95    96    1
    95    95    97    1
    96    62    61    1
    97    61    60    1
    98    59    58    2
    99    60    57    1
   100    57    58    1
   101    57    56    1
