@<TRIPOS>MOLECULE
tmp/2bhyA05.pdb
 92 94 0 0 0
SMALL
GASTEIGER

@<TRIPOS>ATOM
      1  N         37.2660   28.6110   25.2870 N.3    87  HIS87      -0.1241
      2  CA        36.0470   29.4090   25.1220 C.3    87  HIS87       0.1621
      3  C         36.2880   30.8950   25.2800 C.2    87  HIS87       0.2264
      4  O         35.3370   31.6940   25.2900 O.2    87  HIS87      -0.2867
      5  CB        34.9650   28.9160   26.0990 C.3    87  HIS87       0.0745
      6  CG        34.6760   27.4650   25.9510 C.ar   87  HIS87       0.0817
      7  ND1       34.1180   26.9400   24.8080 N.ar   87  HIS87      -0.2268
      8  CD2       34.8890   26.4190   26.7850 C.ar   87  HIS87       0.1154
      9  CE1       34.0010   25.6300   24.9430 C.ar   87  HIS87       0.1986
     10  NE2       34.4650   25.2880   26.1300 N.ar   87  HIS87      -0.2212
     11  N         38.5380   16.9400   15.5300 N.3   202  PHE202     -0.1227
     12  CA        38.6140   17.9610   16.5530 C.3   202  PHE202      0.1736
     13  C         37.9880   17.4110   17.8130 C.2   202  PHE202      0.2596
     14  O         37.0210   16.6350   17.7420 O.2   202  PHE202     -0.2718
     15  CB        37.8700   19.2130   16.1110 C.3   202  PHE202      0.0547
     16  CG        38.5700   19.9790   15.0390 C.ar  202  PHE202     -0.0202
     17  CD1       39.3520   21.0770   15.3500 C.ar  202  PHE202     -0.0042
     18  CD2       38.4350   19.6260   13.7090 C.ar  202  PHE202     -0.0042
     19  CE1       40.0020   21.7780   14.3350 C.ar  202  PHE202     -0.0003
     20  CE2       39.0980   20.3140   12.6950 C.ar  202  PHE202     -0.0003
     21  CZ        39.8760   21.4070   13.0160 C.ar  202  PHE202     -0.0000
     22  N         38.4760   17.8590   18.9660 N.am  203  GLY203     -0.1943
     23  CA        37.8710   17.4840   20.2220 C.3   203  GLY203      0.1998
     24  C         36.4700   18.0480   20.4130 C.2   203  GLY203      0.2481
     25  O         36.0200   18.9080   19.6590 O.2   203  GLY203     -0.2729
     26  N         35.7730   17.5480   21.4270 N.am  204  PRO204     -0.2715
     27  CA        34.3590   17.8340   21.6190 C.3   204  PRO204      0.1536
     28  C         34.0140   19.2260   22.1270 C.2   204  PRO204      0.2599
     29  O         32.8890   19.6700   21.9480 O.2   204  PRO204     -0.2715
     30  CB        33.9370   16.7650   22.6310 C.3   204  PRO204      0.0310
     31  CG        35.1900   16.4970   23.4150 C.3   204  PRO204      0.0237
     32  CD        36.2980   16.5880   22.4130 C.3   204  PRO204      0.0939
     33  N         34.9720   19.9280   22.7120 N.am  205  SER205     -0.1936
     34  CA        34.7120   21.2250   23.3010 C.3   205  SER205      0.2055
     35  C         35.7650   22.2160   22.8260 C.2   205  SER205      0.2644
     36  O         36.9690   21.9470   22.9220 O.2   205  SER205     -0.2714
     37  CB        34.7370   21.1180   24.8220 C.3   205  SER205      0.2130
     38  OG        34.4750   22.3730   25.3960 O.3   205  SER205     -0.2179
     39  N         35.3260   23.3530   22.3090 N.am  206  GLY206     -0.1939
     40  CA        36.2520   24.3750   21.8520 C.3   206  GLY206      0.2014
     41  C         36.4970   24.4900   20.3670 C.2   206  GLY206      0.2639
     42  O         37.2460   25.3570   19.9660 O.2   206  GLY206     -0.2714
     43  N         35.8360   23.6620   19.5700 N.am  207  ASN207     -0.1958
     44  CA        35.9810   23.7330   18.1190 C.3   207  ASN207      0.1819
     45  C         34.8490   24.5510   17.5100 C.2   207  ASN207      0.2621
     46  O         33.7230   24.0390   17.3750 O.2   207  ASN207     -0.2715
     47  CB        35.9950   22.3270   17.5070 C.3   207  ASN207      0.1195
     48  CG        35.8490   22.3520   16.0080 C.2   207  ASN207      0.2630
     49  OD1       36.2300   23.3220   15.3590 O.2   207  ASN207     -0.2716
     50  ND2       35.2890   21.2950   15.4530 N.am  207  ASN207     -0.0877
     51  N         35.1260   25.8100   17.1660 N.am  208  TYR208     -0.1974
     52  CA        34.1080   26.7400   16.6810 C.3   208  TYR208      0.1639
     53  C         34.1080   26.8860   15.1540 C.2   208  TYR208      0.2290
     54  O         33.4110   27.7320   14.6080 O.2   208  TYR208     -0.2864
     55  CB        34.2900   28.0990   17.3690 C.3   208  TYR208      0.0560
     56  CG        33.9100   28.0660   18.8360 C.ar  208  TYR208     -0.0198
     57  CD1       32.5910   28.2650   19.2310 C.ar  208  TYR208     -0.0009
     58  CD2       34.8570   27.8040   19.8100 C.ar  208  TYR208     -0.0009
     59  CE1       32.2370   28.2470   20.5670 C.ar  208  TYR208      0.0417
     60  CE2       34.5040   27.7740   21.1550 C.ar  208  TYR208      0.0417
     61  CZ        33.2020   27.9940   21.5240 C.ar  208  TYR208      0.1957
     62  OH        32.8590   27.9780   22.8760 O.3   208  TYR208     -0.2866
     63  N         32.5970   25.3330   12.7870 N.3   210  SER210     -0.1202
     64  CA        31.2650   25.2620   12.1790 C.3   210  SER210      0.2020
     65  C         30.4390   26.5380   12.3820 C.2   210  SER210      0.2619
     66  O         29.5020   26.7940   11.6280 O.2   210  SER210     -0.2717
     67  CB        30.4920   24.0580   12.7230 C.3   210  SER210      0.2103
     68  OG        30.2130   24.2030   14.1040 O.3   210  SER210     -0.2182
     69  N         30.7740   27.3290   13.4020 N.am  211  SER211     -0.1951
     70  CA        30.1380   28.6250   13.6000 C.3   211  SER211      0.1924
     71  C         30.4630   29.5900   12.4670 C.2   211  SER211      0.2314
     72  O         29.6860   30.5050   12.1710 O.2   211  SER211     -0.2863
     73  CB        30.5600   29.2640   14.9210 C.3   211  SER211      0.2116
     74  OG        30.1190   28.5020   16.0240 O.3   211  SER211     -0.2180
     75  N         34.0200   12.4110   17.7370 N.3   225  TRP225     -0.1227
     76  CA        33.4060   13.5080   18.4640 C.3   225  TRP225      0.1737
     77  C         32.3560   14.2650   17.6730 C.2   225  TRP225      0.2596
     78  O         31.4540   14.8320   18.2620 O.2   225  TRP225     -0.2718
     79  CB        34.4920   14.4720   18.9420 C.3   225  TRP225      0.0564
     80  CG        35.3680   13.8430   19.9730 C.ar  225  TRP225      0.0003
     81  CD1       36.6690   13.5160   19.8350 C.ar  225  TRP225      0.0946
     82  CD2       34.9860   13.4290   21.2890 C.ar  225  TRP225      0.0152
     83  NE1       37.1420   12.9480   20.9940 N.ar  225  TRP225     -0.2442
     84  CE2       36.1230   12.8810   21.9020 C.ar  225  TRP225      0.0810
     85  CE3       33.7930   13.4750   22.0190 C.ar  225  TRP225      0.0012
     86  CZ2       36.1120   12.3970   23.2100 C.ar  225  TRP225      0.0191
     87  CZ3       33.7800   12.9960   23.3110 C.ar  225  TRP225      0.0001
     88  CH2       34.9290   12.4670   23.8960 C.ar  225  TRP225      0.0015
     89  N         32.4600   14.2710   16.3470 N.am  226  GLY226     -0.1957
     90  CA        31.5300   15.0640   15.5380 C.3   226  GLY226      0.1869
     91  C         31.5330   14.7070   14.0610 C.2   226  GLY226      0.2309
     92  O         31.8480   13.5740   13.6810 O.2   226  GLY226     -0.2863
@<TRIPOS>BOND
     1    66    65    2
     2    72    71    2
     3    64    65    1
     4    64    67    1
     5    64    63    1
     6    65    69   am
     7    71    70    1
     8    20    21   ar
     9    20    18   ar
    10    67    68    1
    11    21    19   ar
    12    69    70    1
    13    70    73    1
    14    92    91    2
    15    18    16   ar
    16    91    90    1
    17    19    17   ar
    18    54    53    2
    19    73    74    1
    20    16    17   ar
    21    16    15    1
    22    53    52    1
    23    49    48    2
    24    50    48   am
    25    11    12    1
    26    90    89    1
    27    48    47    1
    28    15    12    1
    29    89    77   am
    30    12    13    1
    31    52    51    1
    32    52    55    1
    33    51    45   am
    34    55    56    1
    35    46    45    2
    36    47    44    1
    37    45    44    1
    38    77    78    2
    39    77    76    1
    40    75    76    1
    41    14    13    2
    42    13    22   am
    43    44    43    1
    44    76    79    1
    45    56    57   ar
    46    56    58   ar
    47    79    80    1
    48    22    23    1
    49    57    59   ar
    50    43    41   am
    51    25    24    2
    52    58    60   ar
    53    81    80   ar
    54    81    83   ar
    55    42    41    2
    56    80    82   ar
    57    23    24    1
    58    41    40    1
    59    24    26   am
    60    59    61   ar
    61    83    84   ar
    62    60    61   ar
    63    82    84   ar
    64    82    85   ar
    65    26    27    1
    66    26    32    1
    67    61    62    1
    68    27    28    1
    69    27    30    1
    70    40    39    1
    71    84    86   ar
    72    29    28    2
    73    85    87   ar
    74    28    33   am
    75    39    35   am
    76    32    31    1
    77    30    31    1
    78    33    34    1
    79    35    36    2
    80    35    34    1
    81    86    88   ar
    82    34    37    1
    83    87    88   ar
    84     7     9   ar
    85     7     6   ar
    86    37    38    1
    87     9    10   ar
    88     2     3    1
    89     2     1    1
    90     2     5    1
    91     3     4    2
    92     6     5    1
    93     6     8   ar
    94    10     8   ar
