@<TRIPOS>MOLECULE
tmp/2bhzA04.pdb
 90 86 0 0 0
SMALL
GASTEIGER

@<TRIPOS>ATOM
      1  N         53.2180   25.5460   -5.3070 N.3     3  GLN3       -0.1231
      2  CA        53.1520   26.8350   -4.6370 C.3     3  GLN3        0.1698
      3  C         52.2400   26.6910   -3.4270 C.2     3  GLN3        0.2593
      4  O         51.1230   26.1900   -3.5340 O.2     3  GLN3       -0.2718
      5  CB        52.6050   27.9160   -5.5690 C.3     3  GLN3        0.0381
      6  CG        53.5200   28.2600   -6.7250 C.3     3  GLN3        0.0905
      7  CD        53.0410   29.4670   -7.5180 C.2     3  GLN3        0.2608
      8  OE1       52.1960   30.2310   -7.0510 O.2     3  GLN3       -0.2717
      9  NE2       53.5870   29.6420   -8.7130 N.am    3  GLN3       -0.0878
     10  N         52.7150   27.1140   -2.2650 N.am    4  THR4       -0.1939
     11  CA        51.8820   27.0430   -1.0730 C.3     4  THR4        0.2028
     12  C         50.5840   27.8100   -1.2880 C.2     4  THR4        0.2642
     13  O         50.5540   28.8460   -1.9770 O.2     4  THR4       -0.2714
     14  CB        52.6220   27.5660    0.1740 C.3     4  THR4        0.1808
     15  OG1       51.7270   27.5620    1.2970 O.3     4  THR4       -0.2208
     16  CG2       53.0700   29.0190    0.0220 C.3     4  THR4        0.0379
     17  N         49.5220   27.3100   -0.6620 N.am    5  GLN5       -0.1963
     18  CA        48.2380   28.0000   -0.6860 C.3     5  GLN5        0.1733
     19  C         48.1520   29.0870    0.3730 C.2     5  GLN5        0.2616
     20  O         47.1320   29.7700    0.4600 O.2     5  GLN5       -0.2715
     21  CB        47.0890   27.0070   -0.5290 C.3     5  GLN5        0.0408
     22  CG        46.9300   26.1280   -1.7550 C.3     5  GLN5        0.0908
     23  CD        45.7120   25.2320   -1.7140 C.2     5  GLN5        0.2608
     24  OE1       44.7040   25.5810   -1.1150 O.2     5  GLN5       -0.2717
     25  NE2       45.7990   24.0720   -2.3700 N.am    5  GLN5       -0.0878
     26  N         49.2180   29.2730    1.1470 N.am    6  HIS6       -0.1959
     27  CA        49.2350   30.2110    2.2570 C.3     6  HIS6        0.1787
     28  C         50.0540   31.4520    1.9530 C.2     6  HIS6        0.2620
     29  O         51.1460   31.3700    1.3950 O.2     6  HIS6       -0.2715
     30  CB        49.7780   29.5020    3.4860 C.3     6  HIS6        0.0785
     31  CG        48.8770   28.4140    3.9620 C.ar    6  HIS6        0.0821
     32  ND1       47.7390   28.6730    4.6910 N.ar    6  HIS6       -0.2267
     33  CD2       48.8990   27.0760    3.7510 C.ar    6  HIS6        0.1154
     34  CE1       47.1160   27.5330    4.9380 C.ar    6  HIS6        0.1986
     35  NE2       47.7970   26.5500    4.3770 N.ar    6  HIS6       -0.2212
     36  N         49.5060   32.6030    2.3160 N.am    7  ASP7       -0.1971
     37  CA        50.1880   33.8880    2.1740 C.3     7  ASP7        0.1709
     38  C         49.8610   34.6380    3.4460 C.2     7  ASP7        0.2293
     39  O         48.6810   34.7410    3.7970 O.2     7  ASP7       -0.2864
     40  CB        49.6400   34.6310    0.9490 C.3     7  ASP7        0.1436
     41  CG        50.3730   35.9500    0.6490 C.2     7  ASP7        0.3671
     42  OD1       50.7620   36.6770    1.5740 O.co2   7  ASP7       -0.2456
     43  OD2       50.5770   36.3460   -0.5220 O.co2   7  ASP7       -0.2456
     44  N         46.8230   37.0920    3.5260 N.3    10  THR10      -0.1218
     45  CA        45.4460   36.5730    3.5740 C.3    10  THR10       0.1862
     46  C         45.2030   35.5520    4.6940 C.2    10  THR10       0.2287
     47  O         44.1740   34.8780    4.7040 O.2    10  THR10      -0.2866
     48  CB        45.0680   35.9560    2.2240 C.3    10  THR10       0.1770
     49  OG1       46.0680   35.0060    1.8210 O.3    10  THR10      -0.2211
     50  CG2       45.0420   37.0090    1.1100 C.3    10  THR10       0.0375
     51  N         40.9130   38.4240    9.9120 N.3    26  ARG26      -0.1245
     52  CA        40.2330   37.8270    8.7640 C.3    26  ARG26       0.1563
     53  C         39.4860   36.5730    9.1970 C.2    26  ARG26       0.2260
     54  O         39.9450   35.8260   10.0730 O.2    26  ARG26      -0.2867
     55  CB        41.2220   37.4450    7.6640 C.3    26  ARG26       0.0307
     56  CG        41.7900   38.5780    6.8730 C.3    26  ARG26       0.0489
     57  CD        42.7920   38.1230    5.8540 C.3    26  ARG26       0.2205
     58  NE        42.2910   37.2630    4.7690 N.pl3  26  ARG26      -0.0865
     59  CZ        41.9720   37.6840    3.5370 C.cat  26  ARG26       0.5346
     60  NH1       41.9770   38.9700    3.2320 N.pl3  26  ARG26       0.1354
     61  NH2       41.6380   36.8090    2.6070 N.pl3  26  ARG26       0.1354
     62  N         34.6070   36.0010    2.6850 N.3    52  ILE52      -0.1245
     63  CA        35.7850   36.4900    3.3880 C.3    52  ILE52       0.1561
     64  C         35.4940   37.8690    3.9470 C.2    52  ILE52       0.2260
     65  O         34.9450   38.7350    3.2490 O.2    52  ILE52      -0.2867
     66  CB        37.0050   36.5440    2.4490 C.3    52  ILE52       0.0252
     67  CG1       37.2670   35.1790    1.8040 C.3    52  ILE52       0.0019
     68  CG2       38.2380   37.0550    3.1960 C.3    52  ILE52       0.0019
     69  CD1       37.5100   34.0360    2.7760 C.3    52  ILE52       0.0001
     70  N         38.8770   25.2950    2.3140 N.3   234  HIS234     -0.1241
     71  CA        39.1360   25.9830    3.5750 C.3   234  HIS234      0.1621
     72  C         39.4520   24.9870    4.6990 C.2   234  HIS234      0.2264
     73  O         40.2080   25.3090    5.6100 O.2   234  HIS234     -0.2867
     74  CB        37.9690   26.8740    3.9910 C.3   234  HIS234      0.0745
     75  CG        37.7730   28.0770    3.1320 C.ar  234  HIS234      0.0817
     76  ND1       38.6870   29.1040    3.0500 N.ar  234  HIS234     -0.2268
     77  CD2       36.7330   28.4230    2.3380 C.ar  234  HIS234      0.1154
     78  CE1       38.2110   30.0360    2.2390 C.ar  234  HIS234      0.1986
     79  NE2       37.0270   29.6480    1.7950 N.ar  234  HIS234     -0.2212
     80  N         43.0630   23.8110    4.1420 N.3   236  ARG236     -0.1245
     81  CA        43.9840   24.8480    4.5730 C.3   236  ARG236      0.1563
     82  C         43.9740   25.0530    6.0770 C.2   236  ARG236      0.2260
     83  O         44.9800   25.4680    6.6270 O.2   236  ARG236     -0.2867
     84  CB        43.6910   26.1670    3.8550 C.3   236  ARG236      0.0307
     85  CG        44.1260   26.1810    2.3920 C.3   236  ARG236      0.0489
     86  CD        43.9850   27.5360    1.7570 C.3   236  ARG236      0.2205
     87  NE        42.5820   27.9280    1.6360 N.pl3 236  ARG236     -0.0865
     88  CZ        41.8190   27.7210    0.5740 C.cat 236  ARG236      0.5346
     89  NH1       42.3030   27.1200   -0.4990 N.pl3 236  ARG236      0.1354
     90  NH2       40.5570   28.1230    0.5810 N.pl3 236  ARG236      0.1354
@<TRIPOS>BOND
     1     9     7   am
     2     7     8    2
     3     7     6    1
     4     6     5    1
     5     5     2    1
     6     1     2    1
     7     2     3    1
     8     4     3    2
     9     3    10   am
    10    25    23   am
    11    10    11    1
    12    13    12    2
    13    22    23    1
    14    22    21    1
    15    23    24    2
    16    12    11    1
    17    12    17   am
    18    11    14    1
    19    18    17    1
    20    18    21    1
    21    18    19    1
    22    43    41   ar
    23    89    88    1
    24    16    14    1
    25    14    15    1
    26    19    20    2
    27    19    26   am
    28    88    90    1
    29    88    87    2
    30    41    40    1
    31    41    42   ar
    32    40    37    1
    33    50    48    1
    34    26    27    1
    35    29    28    2
    36    87    86    1
    37    86    85    1
    38    79    78   ar
    39    79    77   ar
    40    67    66    1
    41    67    69    1
    42    49    48    1
    43    28    27    1
    44    28    36   am
    45    37    36    1
    46    37    38    1
    47    48    45    1
    48    78    76   ar
    49    27    30    1
    50    70    71    1
    51    77    75   ar
    52    85    84    1
    53    66    68    1
    54    66    63    1
    55    61    59    1
    56    62    63    1
    57    76    75   ar
    58    75    74    1
    59    60    59    1
    60    65    64    2
    61    63    64    1
    62    38    39    2
    63    30    31    1
    64    44    45    1
    65    59    58    2
    66    45    46    1
    67    71    74    1
    68    71    72    1
    69    33    31   ar
    70    33    35   ar
    71    84    81    1
    72    31    32   ar
    73    80    81    1
    74    35    34   ar
    75    81    82    1
    76    32    34   ar
    77    46    47    2
    78    72    73    2
    79    58    57    1
    80    57    56    1
    81    82    83    2
    82    56    55    1
    83    55    52    1
    84    52    53    1
    85    52    51    1
    86    53    54    2
