@<TRIPOS>MOLECULE
tmp/2bhzA06.pdb
 76 74 0 0 0
SMALL
GASTEIGER

@<TRIPOS>ATOM
      1  N         36.2880   28.6790   25.3300 N.3    87  HIS87      -0.1241
      2  CA        35.0680   29.4760   25.1360 C.3    87  HIS87       0.1621
      3  C         35.3130   30.9590   25.3100 C.2    87  HIS87       0.2264
      4  O         34.3730   31.7530   25.2780 O.2    87  HIS87      -0.2867
      5  CB        33.9650   29.0150   26.0940 C.3    87  HIS87       0.0745
      6  CG        33.7320   27.5450   26.0580 C.ar   87  HIS87       0.0817
      7  ND1       33.2960   26.8900   24.9280 N.ar   87  HIS87      -0.2268
      8  CD2       33.9220   26.5950   27.0020 C.ar   87  HIS87       0.1154
      9  CE1       33.2200   25.5940   25.1840 C.ar   87  HIS87       0.1986
     10  NE2       33.5850   25.3920   26.4380 N.ar   87  HIS87      -0.2212
     11  N         39.0140   21.6900   26.2800 N.3   155  ASP155     -0.1239
     12  CA        38.3180   22.1580   27.4790 C.3   155  ASP155      0.1674
     13  C         38.7760   21.3800   28.7070 C.2   155  ASP155      0.2266
     14  O         39.1560   20.2160   28.6070 O.2   155  ASP155     -0.2867
     15  CB        36.8090   22.0170   27.2940 C.3   155  ASP155      0.1410
     16  CG        36.0050   22.9950   28.1220 C.2   155  ASP155      0.3668
     17  OD1       36.5550   23.9020   28.7690 O.co2 155  ASP155     -0.2456
     18  OD2       34.7710   22.9370   28.1230 O.co2 155  ASP155     -0.2456
     19  N         37.6380   17.9480   19.0070 N.3   203  GLY203     -0.1210
     20  CA        37.0570   17.5580   20.2730 C.3   203  GLY203      0.1940
     21  C         35.6550   18.0960   20.4840 C.2   203  GLY203      0.2454
     22  O         35.1980   18.9650   19.7460 O.2   203  GLY203     -0.2732
     23  N         34.9690   17.5600   21.4900 N.am  204  PRO204     -0.2717
     24  CA        33.5390   17.8010   21.6780 C.3   204  PRO204      0.1536
     25  C         33.1450   19.1160   22.3430 C.2   204  PRO204      0.2599
     26  O         31.9510   19.3850   22.4670 O.2   204  PRO204     -0.2715
     27  CB        33.1170   16.6300   22.5680 C.3   204  PRO204      0.0310
     28  CG        34.3190   16.3120   23.3540 C.3   204  PRO204      0.0237
     29  CD        35.4900   16.5700   22.4530 C.3   204  PRO204      0.0939
     30  N         34.1130   19.8970   22.8120 N.am  205  SER205     -0.1936
     31  CA        33.8490   21.2100   23.3900 C.3   205  SER205      0.2055
     32  C         34.8820   22.1970   22.8850 C.2   205  SER205      0.2644
     33  O         36.0790   21.9180   22.9300 O.2   205  SER205     -0.2714
     34  CB        33.8980   21.1380   24.9160 C.3   205  SER205      0.2130
     35  OG        33.6150   22.4070   25.4750 O.3   205  SER205     -0.2179
     36  N         34.4220   23.3450   22.4030 N.am  206  GLY206     -0.1939
     37  CA        35.3120   24.4060   21.9640 C.3   206  GLY206      0.2014
     38  C         35.5520   24.5250   20.4740 C.2   206  GLY206      0.2639
     39  O         36.3360   25.3710   20.0670 O.2   206  GLY206     -0.2714
     40  N         34.9090   23.6940   19.6590 N.am  207  ASN207     -0.1958
     41  CA        35.0620   23.7790   18.2170 C.3   207  ASN207      0.1819
     42  C         33.9190   24.6030   17.6510 C.2   207  ASN207      0.2621
     43  O         32.7920   24.1220   17.5670 O.2   207  ASN207     -0.2715
     44  CB        35.0590   22.3860   17.6020 C.3   207  ASN207      0.1195
     45  CG        34.9200   22.4190   16.0870 C.2   207  ASN207      0.2630
     46  OD1       35.3120   23.4000   15.4210 O.2   207  ASN207     -0.2716
     47  ND2       34.3840   21.3390   15.5350 N.am  207  ASN207     -0.0877
     48  N         34.2160   25.8410   17.2770 N.am  208  TYR208     -0.1974
     49  CA        33.2100   26.7660   16.7680 C.3   208  TYR208      0.1639
     50  C         33.2210   26.8950   15.2400 C.2   208  TYR208      0.2290
     51  O         32.5600   27.7810   14.6980 O.2   208  TYR208     -0.2864
     52  CB        33.4000   28.1340   17.4270 C.3   208  TYR208      0.0560
     53  CG        33.0400   28.1270   18.8880 C.ar  208  TYR208     -0.0198
     54  CD1       31.7380   28.3670   19.3040 C.ar  208  TYR208     -0.0009
     55  CD2       33.9960   27.8570   19.8620 C.ar  208  TYR208     -0.0009
     56  CE1       31.3940   28.3590   20.6500 C.ar  208  TYR208      0.0417
     57  CE2       33.6610   27.8450   21.2130 C.ar  208  TYR208      0.0417
     58  CZ        32.3590   28.0970   21.5960 C.ar  208  TYR208      0.1957
     59  OH        32.0180   28.0990   22.9320 O.3   208  TYR208     -0.2866
     60  N         31.7480   25.3870   12.7860 N.3   210  SER210     -0.1202
     61  CA        30.4420   25.3210   12.1290 C.3   210  SER210      0.2020
     62  C         29.6320   26.6060   12.3000 C.2   210  SER210      0.2619
     63  O         28.7290   26.8670   11.5090 O.2   210  SER210     -0.2717
     64  CB        29.6320   24.1180   12.6240 C.3   210  SER210      0.2103
     65  OG        29.1730   24.3160   13.9470 O.3   210  SER210     -0.2182
     66  N         29.9520   27.4020   13.3210 N.am  211  SER211     -0.1951
     67  CA        29.3190   28.7140   13.5060 C.3   211  SER211      0.1924
     68  C         29.6800   29.6560   12.3720 C.2   211  SER211      0.2314
     69  O         28.8940   30.5380   12.0270 O.2   211  SER211     -0.2863
     70  CB        29.7360   29.3690   14.8200 C.3   211  SER211      0.2116
     71  OG        29.2540   28.6340   15.9270 O.3   211  SER211     -0.2180
     72  N         33.0460   19.6370   31.2570 N.3   436  ALA436     -0.1245
     73  CA        31.9610   20.2060   32.0560 C.3   436  ALA436      0.1562
     74  C         30.6520   19.4800   31.8030 C.2   436  ALA436      0.2260
     75  O         30.4580   18.8580   30.7650 O.2   436  ALA436     -0.2867
     76  CB        31.7990   21.6890   31.7280 C.3   436  ALA436      0.0290
@<TRIPOS>BOND
     1    63    62    2
     2    69    68    2
     3    61    62    1
     4    61    64    1
     5    61    60    1
     6    62    66   am
     7    68    67    1
     8    64    65    1
     9    66    67    1
    10    67    70    1
    11    51    50    2
    12    70    71    1
    13    50    49    1
    14    46    45    2
    15    47    45   am
    16    45    44    1
    17    49    48    1
    18    49    52    1
    19    48    42   am
    20    52    53    1
    21    43    42    2
    22    44    41    1
    23    42    41    1
    24    41    40    1
    25    53    54   ar
    26    53    55   ar
    27    19    20    1
    28    54    56   ar
    29    40    38   am
    30    22    21    2
    31    55    57   ar
    32    39    38    2
    33    20    21    1
    34    38    37    1
    35    21    23   am
    36    56    58   ar
    37    57    58   ar
    38    23    24    1
    39    23    29    1
    40    58    59    1
    41    24    25    1
    42    24    27    1
    43    37    36    1
    44    25    26    2
    45    25    30   am
    46    36    32   am
    47    29    28    1
    48    27    28    1
    49    30    31    1
    50    32    33    2
    51    32    31    1
    52    31    34    1
    53    34    35    1
    54     7     9   ar
    55     7     6   ar
    56     2     3    1
    57     2     1    1
    58     2     5    1
    59     9    10   ar
    60     4     3    2
    61     6     5    1
    62     6     8   ar
    63    11    12    1
    64    10     8   ar
    65    15    12    1
    66    15    16    1
    67    12    13    1
    68    16    18   ar
    69    16    17   ar
    70    14    13    2
    71    75    74    2
    72    72    73    1
    73    76    73    1
    74    74    73    1
