@<TRIPOS>MOLECULE
tmp/2bhzA03.pdb
 74 72 0 0 0
SMALL
GASTEIGER

@<TRIPOS>ATOM
      1  N         66.0020    8.0670   10.4600 N.3   111  ALA111     -0.1231
      2  CA        66.8870    6.9500   10.7920 C.3   111  ALA111      0.1694
      3  C         67.7600    7.2110   12.0260 C.2   111  ALA111      0.2592
      4  O         68.3450    6.2820   12.5700 O.2   111  ALA111     -0.2718
      5  CB        67.7590    6.6140    9.6030 C.3   111  ALA111      0.0304
      6  N         67.8520    8.4680   12.4560 N.am  112  ASP112     -0.1974
      7  CA        68.5720    8.8580   13.6670 C.3   112  ASP112      0.1709
      8  C         67.6660    9.1230   14.8660 C.2   112  ASP112      0.2293
      9  O         68.1490    9.4830   15.9380 O.2   112  ASP112     -0.2864
     10  CB        69.4150   10.1010   13.3860 C.3   112  ASP112      0.1436
     11  CG        70.4740    9.8480   12.3550 C.2   112  ASP112      0.3671
     12  OD1       71.0830    8.7600   12.3830 O.co2 112  ASP112     -0.2456
     13  OD2       70.7400   10.6770   11.4670 O.co2 112  ASP112     -0.2456
     14  N         79.0590    0.0220   15.3360 N.3   504  PRO504     -0.2116
     15  CA        79.1450    0.2110   13.8930 C.3   504  PRO504      0.1372
     16  C         78.2820   -0.7230   13.0570 C.2   504  PRO504      0.2244
     17  O         77.9850   -0.4070   11.9080 O.2   504  PRO504     -0.2868
     18  CB        80.6370   -0.0180   13.5980 C.3   504  PRO504      0.0268
     19  CG        81.1000   -0.8840   14.6660 C.3   504  PRO504      0.0207
     20  CD        80.3400   -0.4580   15.8910 C.3   504  PRO504      0.0892
     21  N         74.4050    0.3520   13.4150 N.3   507  HIS507     -0.1226
     22  CA        74.1450    1.4910   12.5370 C.3   507  HIS507      0.1752
     23  C         73.3580    1.1130   11.2830 C.2   507  HIS507      0.2596
     24  O         72.8030    1.9900   10.6160 O.2   507  HIS507     -0.2718
     25  CB        75.4630    2.1640   12.1140 C.3   507  HIS507      0.0759
     26  CG        76.1470    2.9110   13.2190 C.ar  507  HIS507      0.0818
     27  ND1       77.4460    3.3640   13.1190 N.ar  507  HIS507     -0.2268
     28  CD2       75.7090    3.2960   14.4410 C.ar  507  HIS507      0.1154
     29  CE1       77.7810    3.9770   14.2410 C.ar  507  HIS507      0.1986
     30  NE2       76.7410    3.9630   15.0530 N.ar  507  HIS507     -0.2212
     31  N         73.3220   -0.1730   10.9420 N.am  508  ASN508     -0.1960
     32  CA        72.5100   -0.6610    9.8340 C.3   508  ASN508      0.1819
     33  C         71.0980   -0.0920    9.8550 C.2   508  ASN508      0.2621
     34  O         70.4450   -0.0910   10.8940 O.2   508  ASN508     -0.2715
     35  CB        72.3950   -2.1780    9.9020 C.3   508  ASN508      0.1195
     36  CG        71.5210   -2.7190    8.8080 C.2   508  ASN508      0.2630
     37  OD1       71.7770   -2.4530    7.6260 O.2   508  ASN508     -0.2716
     38  ND2       70.4550   -3.4250    9.1760 N.am  508  ASN508     -0.0877
     39  N         70.6120    0.3270    8.6890 N.am  509  ARG509     -0.1963
     40  CA        69.2140    0.7460    8.5360 C.3   509  ARG509      0.1729
     41  C         68.5690    0.1100    7.3080 C.2   509  ARG509      0.2616
     42  O         67.5980    0.6320    6.7690 O.2   509  ARG509     -0.2715
     43  CB        69.0950    2.2780    8.4900 C.3   509  ARG509      0.0348
     44  CG        69.4910    2.9580    9.7940 C.3   509  ARG509      0.0492
     45  CD        68.4870    2.7240   10.9100 C.3   509  ARG509      0.2205
     46  NE        68.8110    3.4690   12.1190 N.pl3 509  ARG509     -0.0865
     47  CZ        69.6530    3.0640   13.0660 C.cat 509  ARG509      0.5346
     48  NH1       70.2570    1.8910   12.9840 N.pl3 509  ARG509      0.1354
     49  NH2       69.8810    3.8340   14.1220 N.pl3 509  ARG509      0.1354
     50  N         69.0740   -1.0550    6.9020 N.am  510  GLN510     -0.1977
     51  CA        68.5850   -1.7860    5.7380 C.3   510  GLN510      0.1601
     52  C         68.0160   -3.1400    6.1210 C.2   510  GLN510      0.2287
     53  O         68.6900   -3.9730    6.7490 O.2   510  GLN510     -0.2864
     54  CB        69.7180   -2.0200    4.7480 C.3   510  GLN510      0.0394
     55  CG        70.2600   -0.7650    4.1040 C.3   510  GLN510      0.0908
     56  CD        71.6430   -1.0060    3.5620 C.2   510  GLN510      0.2608
     57  OE1       71.8030   -1.6330    2.5070 O.2   510  GLN510     -0.2717
     58  NE2       72.6440   -0.5610    4.2890 N.am  510  GLN510     -0.0878
     59  N         76.6600   -6.5400    8.1160 N.3   529  THR529     -0.1203
     60  CA        77.0600   -5.4770    7.1920 C.3   529  THR529      0.1994
     61  C         78.5520   -5.6020    6.9230 C.2   529  THR529      0.2618
     62  O         79.2210   -6.4980    7.4490 O.2   529  THR529     -0.2717
     63  CB        76.7690   -4.0740    7.7630 C.3   529  THR529      0.1784
     64  OG1       77.6840   -3.7810    8.8200 O.3   529  THR529     -0.2211
     65  CG2       75.3810   -3.9690    8.3840 C.3   529  THR529      0.0376
     66  N         79.0870   -4.6880    6.1260 N.am  530  GLY530     -0.1942
     67  CA        80.5320   -4.6440    5.9100 C.3   530  GLY530      0.2014
     68  C         81.3230   -4.4140    7.1830 C.2   530  GLY530      0.2638
     69  O         82.5150   -4.7110    7.2240 O.2   530  GLY530     -0.2714
     70  N         80.6700   -3.9060    8.2310 N.am  531  ALA531     -0.1977
     71  CA        81.3430   -3.6180    9.5000 C.3   531  ALA531      0.1597
     72  C         81.4210   -4.8210   10.4360 C.2   531  ALA531      0.2287
     73  O         82.1260   -4.7730   11.4450 O.2   531  ALA531     -0.2864
     74  CB        80.6510   -2.4620   10.2040 C.3   531  ALA531      0.0319
@<TRIPOS>BOND
     1    57    56    2
     2    56    55    1
     3    56    58   am
     4    55    54    1
     5    54    51    1
     6    51    52    1
     7    51    50    1
     8    67    66    1
     9    67    68    1
    10    52    53    2
    11    66    61   am
    12    42    41    2
    13    50    41   am
    14    61    60    1
    15    61    62    2
    16    68    69    2
    17    68    70   am
    18    60    63    1
    19    60    59    1
    20    41    40    1
    21    37    36    2
    22    63    65    1
    23    63    64    1
    24    70    71    1
    25    43    40    1
    26    43    44    1
    27    40    39    1
    28    39    33   am
    29    36    38   am
    30    36    35    1
    31    71    74    1
    32    71    72    1
    33     5     2    1
    34    44    45    1
    35    32    33    1
    36    32    35    1
    37    32    31    1
    38    33    34    2
    39    72    73    2
    40     1     2    1
    41    24    23    2
    42     2     3    1
    43    45    46    1
    44    31    23   am
    45    23    22    1
    46    13    11   ar
    47    17    16    2
    48     3     6   am
    49     3     4    2
    50    25    22    1
    51    25    26    1
    52    46    47    2
    53    11    12   ar
    54    11    10    1
    55     6     7    1
    56    22    21    1
    57    48    47    1
    58    16    15    1
    59    47    49    1
    60    27    26   ar
    61    27    29   ar
    62    26    28   ar
    63    10     7    1
    64    18    15    1
    65    18    19    1
    66     7     8    1
    67    15    14    1
    68    29    30   ar
    69    28    30   ar
    70    19    20    1
    71     8     9    2
    72    14    20    1
