@<TRIPOS>MOLECULE
tmp/2bhzA01.pdb
 181 177 0 0 0
SMALL
GASTEIGER

@<TRIPOS>ATOM
      1  N         44.5790   14.2260   27.7970 N.3   160  TRP160     -0.1241
      2  CA        45.6580   13.6790   26.9670 C.3   160  TRP160      0.1605
      3  C         46.0340   14.5980   25.8010 C.2   160  TRP160      0.2264
      4  O         47.2040   14.6720   25.4120 O.2   160  TRP160     -0.2867
      5  CB        45.2780   12.3200   26.3940 C.3   160  TRP160      0.0550
      6  CG        45.3330   11.1690   27.3310 C.ar  160  TRP160      0.0003
      7  CD1       45.5160   11.1820   28.6850 C.ar  160  TRP160      0.0946
      8  CD2       45.1800    9.8070   26.9560 C.ar  160  TRP160      0.0152
      9  NE1       45.4780    9.8990   29.1740 N.ar  160  TRP160     -0.2442
     10  CE2       45.2840    9.0330   28.1280 C.ar  160  TRP160      0.0810
     11  CE3       44.9490    9.1560   25.7370 C.ar  160  TRP160      0.0012
     12  CZ2       45.1640    7.6440   28.1150 C.ar  160  TRP160      0.0191
     13  CZ3       44.8550    7.7880   25.7200 C.ar  160  TRP160      0.0001
     14  CH2       44.9490    7.0430   26.9050 C.ar  160  TRP160      0.0015
     15  N         43.6450   14.6620   22.8920 N.3   162  TYR162     -0.1227
     16  CA        42.8680   14.2400   21.7120 C.3   162  TYR162      0.1736
     17  C         41.4760   14.8670   21.6780 C.2   162  TYR162      0.2595
     18  O         40.7270   14.6200   20.7350 O.2   162  TYR162     -0.2718
     19  CB        42.8580   12.6900   21.5370 C.3   162  TYR162      0.0548
     20  CG        44.2830   12.1950   21.4900 C.ar  162  TYR162     -0.0200
     21  CD1       45.0620   12.3440   20.3440 C.ar  162  TYR162     -0.0009
     22  CD2       44.8940   11.6910   22.6220 C.ar  162  TYR162     -0.0009
     23  CE1       46.4110   11.9800   20.3430 C.ar  162  TYR162      0.0417
     24  CE2       46.2140   11.3240   22.6280 C.ar  162  TYR162      0.0417
     25  CZ        46.9670   11.4770   21.4990 C.ar  162  TYR162      0.1957
     26  OH        48.2870   11.1440   21.5650 O.3   162  TYR162     -0.2866
     27  N         41.1490   15.6990   22.6730 N.am  163  ASP163     -0.1974
     28  CA        39.9520   16.5400   22.6340 C.3   163  ASP163      0.1709
     29  C         40.2660   17.9610   22.1650 C.2   163  ASP163      0.2293
     30  O         39.4140   18.8380   22.2530 O.2   163  ASP163     -0.2864
     31  CB        39.2640   16.5860   24.0030 C.3   163  ASP163      0.1436
     32  CG        38.6970   15.2510   24.4240 C.2   163  ASP163      0.3671
     33  OD1       38.4260   14.3860   23.5650 O.co2 163  ASP163     -0.2456
     34  OD2       38.5040   15.0170   25.6360 O.co2 163  ASP163     -0.2456
     35  N         39.6790   14.6580   13.5650 N.3   201  HIS201     -0.1241
     36  CA        38.4810   15.0790   14.2980 C.3   201  HIS201      0.1621
     37  C         38.7980   16.2660   15.1910 C.2   201  HIS201      0.2264
     38  O         39.9550   16.5080   15.5190 O.2   201  HIS201     -0.2867
     39  CB        37.8880   13.9190   15.1230 C.3   201  HIS201      0.0745
     40  CG        38.5340   13.7210   16.4560 C.ar  201  HIS201      0.0817
     41  ND1       39.6780   12.9750   16.6320 N.ar  201  HIS201     -0.2268
     42  CD2       38.1710   14.1460   17.6860 C.ar  201  HIS201      0.1154
     43  CE1       40.0040   12.9690   17.9140 C.ar  201  HIS201      0.1986
     44  NE2       39.0980   13.6630   18.5750 N.ar  201  HIS201     -0.2212
     45  N         34.9690   17.5600   21.4900 N.3   204  PRO204     -0.2116
     46  CA        33.5390   17.8010   21.6780 C.3   204  PRO204      0.1372
     47  C         33.1450   19.1160   22.3430 C.2   204  PRO204      0.2244
     48  O         31.9510   19.3850   22.4670 O.2   204  PRO204     -0.2868
     49  CB        33.1170   16.6300   22.5680 C.3   204  PRO204      0.0268
     50  CG        34.3190   16.3120   23.3540 C.3   204  PRO204      0.0207
     51  CD        35.4900   16.5700   22.4530 C.3   204  PRO204      0.0892
     52  N         35.2480    7.7160   15.1750 N.3   224  ALA224     -0.1231
     53  CA        34.7120    7.3040   16.4660 C.3   224  ALA224      0.1694
     54  C         34.5880    8.4690   17.4420 C.2   224  ALA224      0.2592
     55  O         33.9240    8.3430   18.4690 O.2   224  ALA224     -0.2718
     56  CB        35.5680    6.2110   17.0690 C.3   224  ALA224      0.0304
     57  N         35.1970    9.6100   17.1170 N.am  225  TRP225     -0.1976
     58  CA        35.2860   10.7250   18.0590 C.3   225  TRP225      0.1640
     59  C         34.6020   12.0110   17.6130 C.2   225  TRP225      0.2290
     60  O         34.5370   12.9630   18.3880 O.2   225  TRP225     -0.2864
     61  CB        36.7590   11.0240   18.3470 C.3   225  TRP225      0.0576
     62  CG        37.5560    9.7800   18.5970 C.ar  225  TRP225      0.0006
     63  CD1       37.5390    9.0040   19.7200 C.ar  225  TRP225      0.0946
     64  CD2       38.4630    9.1510   17.6890 C.ar  225  TRP225      0.0152
     65  NE1       38.3890    7.9350   19.5700 N.ar  225  TRP225     -0.2442
     66  CE2       38.9770    8.0030   18.3340 C.ar  225  TRP225      0.0810
     67  CE3       38.9110    9.4470   16.3940 C.ar  225  TRP225      0.0012
     68  CZ2       39.9080    7.1540   17.7280 C.ar  225  TRP225      0.0191
     69  CZ3       39.8350    8.6070   15.7940 C.ar  225  TRP225      0.0001
     70  CH2       40.3250    7.4720   16.4630 C.ar  225  TRP225      0.0015
     71  N         47.8040   11.8680   14.0230 N.3   256  ASP256     -0.1239
     72  CA        46.9130   10.9430   14.6890 C.3   256  ASP256      0.1674
     73  C         45.9010   10.3420   13.7100 C.2   256  ASP256      0.2266
     74  O         45.3470   11.0510   12.8660 O.2   256  ASP256     -0.2867
     75  CB        46.1580   11.6980   15.7830 C.3   256  ASP256      0.1410
     76  CG        45.2460   10.8270   16.5800 C.2   256  ASP256      0.3668
     77  OD1       45.7490    9.9900   17.3580 O.co2 256  ASP256     -0.2456
     78  OD2       44.0100   10.9630   16.4960 O.co2 256  ASP256     -0.2456
     79  N         51.2380    5.9640   24.6070 N.3   379  HIS379     -0.1226
     80  CA        50.0930    6.4570   25.3820 C.3   379  HIS379      0.1752
     81  C         48.8820    5.5520   25.2610 C.2   379  HIS379      0.2596
     82  O         48.1360    5.3850   26.2260 O.2   379  HIS379     -0.2718
     83  CB        49.6890    7.8930   24.9990 C.3   379  HIS379      0.0759
     84  CG        49.3030    8.0620   23.5620 C.ar  379  HIS379      0.0818
     85  ND1       48.0130    7.9690   23.0770 N.ar  379  HIS379     -0.2268
     86  CD2       50.0790    8.3350   22.4950 C.ar  379  HIS379      0.1154
     87  CE1       48.0280    8.1530   21.7670 C.ar  379  HIS379      0.1986
     88  NE2       49.2690    8.3930   21.3930 N.ar  379  HIS379     -0.2212
     89  N         48.6460    5.0280   24.0570 N.am  380  ASP380     -0.1974
     90  CA        47.4650    4.2080   23.8060 C.3   380  ASP380      0.1709
     91  C         47.6240    2.8290   24.4300 C.2   380  ASP380      0.2293
     92  O         46.6900    2.3150   25.0370 O.2   380  ASP380     -0.2864
     93  CB        47.2380    4.0150   22.3030 C.3   380  ASP380      0.1436
     94  CG        46.4740    5.1410   21.6400 C.2   380  ASP380      0.3671
     95  OD1       45.6410    5.8200   22.2710 O.co2 380  ASP380     -0.2456
     96  OD2       46.6350    5.3580   20.4120 O.co2 380  ASP380     -0.2456
     97  N         44.8380    2.9260   27.2260 N.3   384  ASN384     -0.1240
     98  CA        43.5680    2.3110   26.8200 C.3   384  ASN384      0.1653
     99  C         43.3020    0.9780   27.5000 C.2   384  ASN384      0.2266
    100  O         42.2850    0.3480   27.2530 O.2   384  ASN384     -0.2867
    101  CB        43.4620    2.2290   25.2980 C.3   384  ASN384      0.1155
    102  CG        43.4420    3.6020   24.6550 C.2   384  ASN384      0.2627
    103  OD1       43.0010    4.5800   25.2600 O.2   384  ASN384     -0.2716
    104  ND2       43.9170    3.6810   23.4240 N.am  384  ASN384     -0.0877
    105  N         43.5990    7.1180   31.4450 N.3   431  PHE431     -0.1241
    106  CA        42.8260    8.1080   30.7150 C.3   431  PHE431      0.1605
    107  C         42.1690    9.0720   31.6880 C.2   431  PHE431      0.2264
    108  O         41.4240    8.6610   32.5790 O.2   431  PHE431     -0.2867
    109  CB        41.7610    7.4930   29.8030 C.3   431  PHE431      0.0534
    110  CG        41.0990    8.5230   28.9430 C.ar  431  PHE431     -0.0203
    111  CD1       41.7630    9.0360   27.8490 C.ar  431  PHE431     -0.0042
    112  CD2       39.8730    9.0590   29.2860 C.ar  431  PHE431     -0.0042
    113  CE1       41.1950   10.0370   27.0740 C.ar  431  PHE431     -0.0003
    114  CE2       39.3020   10.0600   28.5080 C.ar  431  PHE431     -0.0003
    115  CZ        39.9720   10.5510   27.4090 C.ar  431  PHE431     -0.0000
    116  N         40.3100   13.2010   31.9040 N.3   433  SER433     -0.1217
    117  CA        39.6470   14.2940   31.2150 C.3   433  SER433      0.1889
    118  C         39.0630   15.2300   32.2680 C.2   433  SER433      0.2288
    119  O         39.0810   14.9230   33.4670 O.2   433  SER433     -0.2866
    120  CB        38.5320   13.7490   30.3290 C.3   433  SER433      0.2089
    121  OG        37.6150   13.0050   31.1120 O.3   433  SER433     -0.2183
    122  N         35.9550   17.4880   31.4250 N.3   435  HIS435     -0.1241
    123  CA        34.8720   18.1690   30.7270 C.3   435  HIS435      0.1621
    124  C         33.7770   18.6110   31.6780 C.2   435  HIS435      0.2264
    125  O         33.5930   18.0430   32.7490 O.2   435  HIS435     -0.2867
    126  CB        34.3100   17.2800   29.6190 C.3   435  HIS435      0.0745
    127  CG        35.2010   17.2170   28.4260 C.ar  435  HIS435      0.0817
    128  ND1       35.4620   18.3250   27.6490 N.ar  435  HIS435     -0.2268
    129  CD2       35.9460   16.2100   27.9150 C.ar  435  HIS435      0.1154
    130  CE1       36.3130   17.9930   26.6950 C.ar  435  HIS435      0.1986
    131  NE2       36.6190   16.7150   26.8300 N.ar  435  HIS435     -0.2212
    132  N         28.5740   16.4020   29.2050 N.3   439  LEU439     -0.1245
    133  CA        29.6980   15.8680   28.4390 C.3   439  LEU439      0.1561
    134  C         30.6850   15.1730   29.3680 C.2   439  LEU439      0.2260
    135  O         31.1470   14.0710   29.0760 O.2   439  LEU439     -0.2867
    136  CB        30.3990   16.9810   27.6590 C.3   439  LEU439      0.0270
    137  CG        31.5810   16.5760   26.7810 C.3   439  LEU439      0.0019
    138  CD1       31.1740   15.5450   25.7440 C.3   439  LEU439      0.0001
    139  CD2       32.1500   17.8000   26.1020 C.3   439  LEU439      0.0001
    140  N         31.8260   10.7610   29.7650 N.3   443  VAL443     -0.1245
    141  CA        33.1470   10.2520   29.3460 C.3   443  VAL443      0.1561
    142  C         33.3780    8.7820   29.7220 C.2   443  VAL443      0.2260
    143  O         33.8240    7.9820   28.8860 O.2   443  VAL443     -0.2867
    144  CB        34.3120   11.1130   29.9080 C.3   443  VAL443      0.0252
    145  CG1       35.6690   10.5280   29.5030 C.3   443  VAL443      0.0019
    146  CG2       34.2030   12.5490   29.4230 C.3   443  VAL443      0.0019
    147  N         31.4780    6.4040   27.5500 N.3   446  GLY446     -0.1210
    148  CA        32.0510    6.4310   26.2100 C.3   446  GLY446      0.1956
    149  C         33.2730    5.5330   26.1130 C.2   446  GLY446      0.2611
    150  O         33.4380    4.8050   25.1360 O.2   446  GLY446     -0.2717
    151  N         34.1280    5.6020   27.1320 N.am  447  ARG447     -0.1979
    152  CA        35.3100    4.7490   27.2430 C.3   447  ARG447      0.1597
    153  C         34.9310    3.2680   27.2880 C.2   447  ARG447      0.2287
    154  O         35.5100    2.4510   26.5740 O.2   447  ARG447     -0.2864
    155  CB        36.0930    5.1120   28.5050 C.3   447  ARG447      0.0334
    156  CG        36.8890    6.4110   28.4080 C.3   447  ARG447      0.0492
    157  CD        38.2470    6.2410   27.7610 C.3   447  ARG447      0.2205
    158  NE        39.1050    5.3900   28.5690 N.pl3 447  ARG447     -0.0865
    159  CZ        40.3060    4.9740   28.2070 C.cat 447  ARG447      0.5346
    160  NH1       40.8460    5.3420   27.0480 N.pl3 447  ARG447      0.1354
    161  NH2       40.9850    4.1970   29.0320 N.pl3 447  ARG447      0.1354
    162  N         33.7170    2.2970   23.7820 N.3   450  GLU450     -0.1231
    163  CA        34.8020    2.2890   22.8000 C.3   450  GLU450      0.1699
    164  C         35.6940    1.0620   22.9830 C.2   450  GLU450      0.2592
    165  O         36.1250    0.4580   22.0020 O.2   450  GLU450     -0.2718
    166  CB        35.6450    3.5790   22.8820 C.3   450  GLU450      0.0402
    167  CG        36.6920    3.7000   21.7750 C.3   450  GLU450      0.1161
    168  CD        37.3230    5.0840   21.6380 C.2   450  GLU450      0.3649
    169  OE1       36.7800    6.0760   22.1810 O.co2 450  GLU450     -0.2457
    170  OE2       38.3730    5.1860   20.9550 O.co2 450  GLU450     -0.2457
    171  N         35.9500    0.6900   24.2350 N.am  451  PHE451     -0.1976
    172  CA        36.8270   -0.4460   24.5360 C.3   451  PHE451      0.1639
    173  C         36.0810   -1.6310   25.1620 C.2   451  PHE451      0.2290
    174  O         36.6350   -2.3750   25.9680 O.2   451  PHE451     -0.2864
    175  CB        37.9960    0.0260   25.4020 C.3   451  PHE451      0.0560
    176  CG        38.8490    1.0470   24.7140 C.ar  451  PHE451     -0.0200
    177  CD1       39.7310    0.6610   23.7090 C.ar  451  PHE451     -0.0042
    178  CD2       38.7350    2.3950   25.0220 C.ar  451  PHE451     -0.0042
    179  CE1       40.5040    1.5930   23.0480 C.ar  451  PHE451     -0.0003
    180  CE2       39.5100    3.3370   24.3520 C.ar  451  PHE451     -0.0003
    181  CZ        40.3920    2.9300   23.3640 C.ar  451  PHE451     -0.0000
@<TRIPOS>BOND
     1    74    73    2
     2    35    36    1
     3    73    72    1
     4    71    72    1
     5    36    39    1
     6    36    37    1
     7    72    75    1
     8    39    40    1
     9    52    53    1
    10    37    38    2
    11    75    76    1
    12    69    67   ar
    13    69    70   ar
    14    67    64   ar
    15    40    41   ar
    16    40    42   ar
    17    70    68   ar
    18    53    56    1
    19    53    54    1
    20    78    76   ar
    21    76    77   ar
    22    41    43   ar
    23    57    54   am
    24    57    58    1
    25    54    55    2
    26    59    58    1
    27    59    60    2
    28    42    44   ar
    29    64    66   ar
    30    64    62   ar
    31    68    66   ar
    32    43    44   ar
    33    58    61    1
    34    66    65   ar
    35    61    62    1
    36    62    63   ar
    37    65    63   ar
    38    23    21   ar
    39    23    25   ar
    40    21    20   ar
    41    96    94   ar
    42    18    17    2
    43   170   168   ar
    44    88    87   ar
    45    88    86   ar
    46    45    46    1
    47    45    51    1
    48    20    19    1
    49    20    22   ar
    50    25    26    1
    51    25    24   ar
    52    19    16    1
    53   168   167    1
    54   168   169   ar
    55    94    95   ar
    56    94    93    1
    57    46    47    1
    58    46    49    1
    59    17    16    1
    60    17    27   am
    61    16    15    1
    62    87    85   ar
    63   167   166    1
    64   165   164    2
    65    29    30    2
    66    29    28    1
    67    93    90    1
    68    47    48    2
    69    51    50    1
    70    86    84   ar
    71    49    50    1
    72    22    24   ar
    73    28    27    1
    74    28    31    1
    75   163   166    1
    76   163   164    1
    77   163   162    1
    78   164   171   am
    79   179   181   ar
    80   179   177   ar
    81    85    84   ar
    82   181   180   ar
    83   104   102   am
    84    84    83    1
    85    33    32   ar
    86   177   176   ar
    87    90    89    1
    88    90    91    1
    89    31    32    1
    90    89    81   am
    91   171   172    1
    92   180   178   ar
    93    32    34   ar
    94    91    92    2
    95   172   173    1
    96   172   175    1
    97    79    80    1
    98   102   103    2
    99   102   101    1
   100   176   178   ar
   101   176   175    1
   102    83    80    1
   103   150   149    2
   104   173   174    2
   105    81    80    1
   106    81    82    2
   107   101    98    1
   108     4     3    2
   109    13    11   ar
   110    13    14   ar
   111    11     8   ar
   112   138   137    1
   113     3     2    1
   114   139   137    1
   115   149   148    1
   116   149   151   am
   117   148   147    1
   118     5     2    1
   119     5     6    1
   120   154   153    2
   121   130   131   ar
   122   130   128   ar
   123   137   136    1
   124    98    97    1
   125    98    99    1
   126   131   129   ar
   127    14    12   ar
   128     8     6   ar
   129     8    10   ar
   130     2     1    1
   131   160   159    1
   132   113   115   ar
   133   113   111   ar
   134   151   152    1
   135   152   153    1
   136   152   155    1
   137   100    99    2
   138     6     7   ar
   139   115   114   ar
   140   128   127   ar
   141   136   133    1
   142   157   156    1
   143   157   158    1
   144   111   110   ar
   145   129   127   ar
   146    12    10   ar
   147    10     9   ar
   148   159   158    2
   149   159   161    1
   150   156   155    1
   151   127   126    1
   152   133   132    1
   153   133   134    1
   154   114   112   ar
   155     7     9   ar
   156   143   142    2
   157   110   112   ar
   158   110   109    1
   159   135   134    2
   160   141   142    1
   161   141   140    1
   162   141   144    1
   163   146   144    1
   164   145   144    1
   165   126   123    1
   166   109   106    1
   167   120   121    1
   168   120   117    1
   169   106   105    1
   170   106   107    1
   171   123   122    1
   172   123   124    1
   173   117   116    1
   174   117   118    1
   175   124   125    2
   176   107   108    2
   177   118   119    2
