@<TRIPOS>MOLECULE
tmp/2bhzA02.pdb
 121 122 0 0 0
SMALL
GASTEIGER

@<TRIPOS>ATOM
      1  N         68.5440   28.8430   17.9250 N.3   102  ASP102     -0.1225
      2  CA        68.6910   27.6090   17.1540 C.3   102  ASP102      0.1805
      3  C         68.7870   27.8590   15.6450 C.2   102  ASP102      0.2597
      4  O         68.3640   27.0280   14.8350 O.2   102  ASP102     -0.2718
      5  CB        67.5300   26.6620   17.4880 C.3   102  ASP102      0.1424
      6  CG        66.1930   27.1700   17.0110 C.2   102  ASP102      0.3668
      7  OD1       66.0720   28.3810   16.7040 O.co2 102  ASP102     -0.2456
      8  OD2       65.2120   26.3920   16.9150 O.co2 102  ASP102     -0.2456
      9  N         69.3760   28.9870   15.2560 N.am  103  ALA103     -0.1979
     10  CA        69.5130   29.3100   13.8400 C.3   103  ALA103      0.1597
     11  C         70.3640   28.2930   13.0930 C.2   103  ALA103      0.2287
     12  O         70.1920   28.1170   11.8870 O.2   103  ALA103     -0.2864
     13  CB        70.0960   30.7020   13.6620 C.3   103  ALA103      0.0319
     14  N         70.4830   25.0000   13.8590 N.3   105  TRP105     -0.1227
     15  CA        69.9220   23.6580   14.0220 C.3   105  TRP105      0.1737
     16  C         69.3140   23.2150   12.6990 C.2   105  TRP105      0.2595
     17  O         68.5790   23.9680   12.0490 O.2   105  TRP105     -0.2718
     18  CB        68.8870   23.6360   15.1530 C.3   105  TRP105      0.0564
     19  CG        68.0390   22.4040   15.1920 C.ar  105  TRP105      0.0003
     20  CD1       66.7430   22.3090   14.7930 C.ar  105  TRP105      0.0946
     21  CD2       68.4130   21.1020   15.6510 C.ar  105  TRP105      0.0152
     22  NE1       66.2910   21.0230   14.9550 N.ar  105  TRP105     -0.2442
     23  CE2       67.2890   20.2670   15.4990 C.ar  105  TRP105      0.0810
     24  CE3       69.5820   20.5500   16.1830 C.ar  105  TRP105      0.0012
     25  CZ2       67.2960   18.9240   15.8480 C.ar  105  TRP105      0.0191
     26  CZ3       69.5860   19.2150   16.5260 C.ar  105  TRP105      0.0001
     27  CH2       68.4540   18.4130   16.3540 C.ar  105  TRP105      0.0015
     28  N         69.6170   21.9840   12.2960 N.am  106  HIS106     -0.1961
     29  CA        69.2630   21.5300   10.9600 C.3   106  HIS106      0.1787
     30  C         68.3380   20.3200   10.9750 C.2   106  HIS106      0.2620
     31  O         68.2330   19.6080    9.9780 O.2   106  HIS106     -0.2715
     32  CB        70.5400   21.2410   10.1780 C.3   106  HIS106      0.0785
     33  CG        71.4250   22.4390   10.0380 C.ar  106  HIS106      0.0821
     34  ND1       72.7690   22.4130   10.3370 N.ar  106  HIS106     -0.2267
     35  CD2       71.1440   23.7130    9.6760 C.ar  106  HIS106      0.1154
     36  CE1       73.2870   23.6110   10.1280 C.ar  106  HIS106      0.1986
     37  NE2       72.3220   24.4210    9.7330 N.ar  106  HIS106     -0.2212
     38  N         67.6440   20.0960   12.0870 N.am  107  GLY107     -0.1954
     39  CA        66.6700   19.0080   12.1660 C.3   107  GLY107      0.1869
     40  C         67.3140   17.6650   12.4010 C.2   107  GLY107      0.2309
     41  O         68.4850   17.5750   12.7540 O.2   107  GLY107     -0.2863
     42  N         66.6740   22.0460   21.1380 N.3   187  HIS187     -0.1241
     43  CA        67.6100   22.2120   20.0380 C.3   187  HIS187      0.1621
     44  C         69.0280   22.5510   20.5180 C.2   187  HIS187      0.2264
     45  O         69.9990   22.0590   19.9510 O.2   187  HIS187     -0.2867
     46  CB        67.1180   23.2850   19.0850 C.3   187  HIS187      0.0745
     47  CG        65.9100   22.9080   18.2910 C.ar  187  HIS187      0.0817
     48  ND1       65.4100   21.6280   18.1600 N.ar  187  HIS187     -0.2268
     49  CD2       65.1040   23.7060   17.5600 C.ar  187  HIS187      0.1154
     50  CE1       64.3420   21.6680   17.3720 C.ar  187  HIS187      0.1986
     51  NE2       64.1440   22.9150   16.9920 N.ar  187  HIS187     -0.2212
     52  N         55.6360   23.9650   12.6240 N.3   245  LEU245     -0.1245
     53  CA        56.9910   23.7890   12.1170 C.3   245  LEU245      0.1561
     54  C         57.7380   25.1210   11.9860 C.2   245  LEU245      0.2260
     55  O         58.8510   25.2500   12.4660 O.2   245  LEU245     -0.2867
     56  CB        56.9370   23.0260   10.7960 C.3   245  LEU245      0.0270
     57  CG        56.3250   21.6230   10.8950 C.3   245  LEU245      0.0019
     58  CD1       56.2030   21.0420    9.5040 C.3   245  LEU245      0.0001
     59  CD2       57.1190   20.6720   11.7920 C.3   245  LEU245      0.0001
     60  N         59.0740   26.0190   15.5820 N.3   249  HIS249     -0.1226
     61  CA        60.3510   25.3310   15.3110 C.3   249  HIS249      0.1752
     62  C         60.3230   23.8270   15.6090 C.2   249  HIS249      0.2596
     63  O         61.3570   23.2090   15.8450 O.2   249  HIS249     -0.2718
     64  CB        61.5300   25.9890   16.0390 C.3   249  HIS249      0.0759
     65  CG        61.9110   27.3410   15.5180 C.ar  249  HIS249      0.0818
     66  ND1       63.1580   27.8770   15.7360 N.ar  249  HIS249     -0.2268
     67  CD2       61.2250   28.2590   14.7950 C.ar  249  HIS249      0.1154
     68  CE1       63.2270   29.0690   15.1640 C.ar  249  HIS249      0.1986
     69  NE2       62.0650   29.3290   14.5920 N.ar  249  HIS249     -0.2212
     70  N         59.1460   23.2140   15.5700 N.am  250  PHE250     -0.1962
     71  CA        59.0990   21.7530   15.6590 C.3   250  PHE250      0.1771
     72  C         59.8220   21.1400   14.4540 C.2   250  PHE250      0.2619
     73  O         59.9210   21.7540   13.3900 O.2   250  PHE250     -0.2715
     74  CB        57.6540   21.2370   15.7500 C.3   250  PHE250      0.0574
     75  CG        57.0500   21.3600   17.1250 C.ar  250  PHE250     -0.0200
     76  CD1       57.1910   20.3380   18.0500 C.ar  250  PHE250     -0.0042
     77  CD2       56.3190   22.4860   17.4890 C.ar  250  PHE250     -0.0042
     78  CE1       56.6190   20.4450   19.3250 C.ar  250  PHE250     -0.0003
     79  CE2       55.7570   22.5920   18.7540 C.ar  250  PHE250     -0.0003
     80  CZ        55.9030   21.5640   19.6660 C.ar  250  PHE250     -0.0000
     81  N         60.3070   19.9140   14.6370 N.am  251  ASP251     -0.1971
     82  CA        61.0630   19.1770   13.6230 C.3   251  ASP251      0.1709
     83  C         60.2430   18.1700   12.8560 C.2   251  ASP251      0.2293
     84  O         60.7090   17.6220   11.8580 O.2   251  ASP251     -0.2864
     85  CB        62.2230   18.4630   14.2900 C.3   251  ASP251      0.1436
     86  CG        63.1560   19.4270   14.9310 C.2   251  ASP251      0.3671
     87  OD1       63.7770   20.2260   14.1830 O.co2 251  ASP251     -0.2456
     88  OD2       63.2900   19.4800   16.1610 O.co2 251  ASP251     -0.2456
     89  N         58.3120   24.7230    3.1280 N.3   279  LEU279     -0.1231
     90  CA        59.0670   25.5280    4.0890 C.3   279  LEU279      0.1693
     91  C         60.5740   25.4590    3.8630 C.2   279  LEU279      0.2593
     92  O         61.3070   26.2600    4.4170 O.2   279  LEU279     -0.2718
     93  CB        58.7540   25.0940    5.5250 C.3   279  LEU279      0.0284
     94  CG        57.3060   25.2530    5.9720 C.3   279  LEU279      0.0019
     95  CD1       57.1380   24.6460    7.3580 C.3   279  LEU279      0.0001
     96  CD2       56.8710   26.7110    5.9730 C.3   279  LEU279      0.0001
     97  N         61.0520   24.5010    3.0730 N.am  280  GLY280     -0.1942
     98  CA        62.4610   24.4770    2.7080 C.3   280  GLY280      0.2014
     99  C         63.3850   24.0220    3.8110 C.2   280  GLY280      0.2639
    100  O         64.5390   24.4330    3.8640 O.2   280  GLY280     -0.2714
    101  N         62.8940   23.1410    4.6780 N.am  281  GLY281     -0.1939
    102  CA        63.6850   22.5720    5.7570 C.3   281  GLY281      0.2014
    103  C         63.7690   21.0680    5.6530 C.2   281  GLY281      0.2640
    104  O         63.6310   20.4940    4.5710 O.2   281  GLY281     -0.2714
    105  N         64.0090   20.4310    6.7930 N.am  282  THR282     -0.1936
    106  CA        64.1520   18.9750    6.8670 C.3   282  THR282      0.2028
    107  C         63.0570   18.3440    7.7440 C.2   282  THR282      0.2642
    108  O         63.1900   17.2060    8.2120 O.2   282  THR282     -0.2714
    109  CB        65.5360   18.5830    7.4150 C.3   282  THR282      0.1808
    110  OG1       65.6410   19.0150    8.7840 O.3   282  THR282     -0.2208
    111  CG2       66.6730   19.2660    6.6440 C.3   282  THR282      0.0379
    112  N         61.9620   19.0660    7.9270 N.am  283  HIS283     -0.1973
    113  CA        60.8480   18.6340    8.7590 C.3   283  HIS283      0.1656
    114  C         60.2700   17.3130    8.2740 C.2   283  HIS283      0.2291
    115  O         60.1490   17.1130    7.0670 O.2   283  HIS283     -0.2864
    116  CB        59.7550   19.7020    8.7160 C.3   283  HIS283      0.0771
    117  CG        60.2540   21.0800    9.0100 C.ar  283  HIS283      0.0820
    118  ND1       60.6510   21.9580    8.0270 N.ar  283  HIS283     -0.2267
    119  CD2       60.4510   21.7120   10.1880 C.ar  283  HIS283      0.1154
    120  CE1       61.0660   23.0790    8.5920 C.ar  283  HIS283      0.1986
    121  NE2       60.9520   22.9560    9.9060 N.ar  283  HIS283     -0.2212
@<TRIPOS>BOND
     1    98    97    1
     2    98    99    1
     3    97    91   am
     4    89    90    1
     5    99   100    2
     6    99   101   am
     7    91    90    1
     8    91    92    2
     9    90    93    1
    10   104   103    2
    11   101   102    1
    12    93    94    1
    13   103   102    1
    14   103   105   am
    15    94    96    1
    16    94    95    1
    17   111   109    1
    18   105   106    1
    19   106   109    1
    20   106   107    1
    21   115   114    2
    22   109   110    1
    23   107   112   am
    24   107   108    2
    25   112   113    1
    26   118   120   ar
    27   118   117   ar
    28   114   113    1
    29   120   121   ar
    30   116   113    1
    31   116   117    1
    32   117   119   ar
    33    58    57    1
    34    35    37   ar
    35    35    33   ar
    36    37    36   ar
    37   121   119   ar
    38    31    30    2
    39    33    32    1
    40    33    34   ar
    41    36    34   ar
    42    32    29    1
    43    56    57    1
    44    56    53    1
    45    57    59    1
    46    29    30    1
    47    29    28    1
    48    30    38   am
    49    84    83    2
    50    12    11    2
    51    54    53    1
    52    54    55    2
    53    17    16    2
    54    38    39    1
    55    53    52    1
    56    39    40    1
    57    28    16   am
    58    40    41    2
    59    16    15    1
    60    83    82    1
    61    11    10    1
    62    73    72    2
    63    82    85    1
    64    82    81    1
    65    13    10    1
    66    10     9    1
    67    14    15    1
    68    15    18    1
    69    87    86   ar
    70    85    86    1
    71    72    81   am
    72    72    71    1
    73    69    67   ar
    74    69    68   ar
    75    20    22   ar
    76    20    19   ar
    77    67    65   ar
    78     4     3    2
    79    86    88   ar
    80    22    23   ar
    81    18    19    1
    82    68    66   ar
    83    19    21   ar
    84     9     3   am
    85    61    60    1
    86    61    62    1
    87    61    64    1
    88    23    21   ar
    89    23    25   ar
    90    65    66   ar
    91    65    64    1
    92    70    62   am
    93    70    71    1
    94    62    63    2
    95     3     2    1
    96    21    24   ar
    97    71    74    1
    98    74    75    1
    99    25    27   ar
   100    24    26   ar
   101    27    26   ar
   102     7     6   ar
   103     8     6   ar
   104    51    50   ar
   105    51    49   ar
   106     6     5    1
   107    75    77   ar
   108    75    76   ar
   109     2     5    1
   110     2     1    1
   111    50    48   ar
   112    77    79   ar
   113    49    47   ar
   114    76    78   ar
   115    48    47   ar
   116    47    46    1
   117    79    80   ar
   118    46    43    1
   119    78    80   ar
   120    45    44    2
   121    43    44    1
   122    43    42    1
