@<TRIPOS>MOLECULE
tmp/2bhzA00.pdb
 142 137 0 0 0
SMALL
GASTEIGER

@<TRIPOS>ATOM
      1  N         41.2630    7.8700    9.2850 N.3   260  TYR260     -0.1241
      2  CA        40.0100    8.6270    9.3910 C.3   260  TYR260      0.1605
      3  C         40.1150   10.0400    8.8430 C.2   260  TYR260      0.2264
      4  O         39.1720   10.8120    8.9610 O.2   260  TYR260     -0.2867
      5  CB        39.4840    8.5640   10.8290 C.3   260  TYR260      0.0534
      6  CG        39.4640    7.1090   11.2230 C.ar  260  TYR260     -0.0201
      7  CD1       38.5500    6.2360   10.6500 C.ar  260  TYR260     -0.0009
      8  CD2       40.4350    6.5790   12.0540 C.ar  260  TYR260     -0.0009
      9  CE1       38.5740    4.8860   10.9300 C.ar  260  TYR260      0.0417
     10  CE2       40.4650    5.2260   12.3520 C.ar  260  TYR260      0.0417
     11  CZ        39.5230    4.3890   11.7930 C.ar  260  TYR260      0.1957
     12  OH        39.5470    3.0420   12.0590 O.3   260  TYR260     -0.2866
     13  N         50.1220    7.8410   12.2190 N.3   288  GLU288     -0.1245
     14  CA        49.6260    6.7470   13.0400 C.3   288  GLU288      0.1567
     15  C         48.5100    6.0760   12.2620 C.2   288  GLU288      0.2260
     16  O         47.3910    6.5710   12.2170 O.2   288  GLU288     -0.2867
     17  CB        49.0970    7.2230   14.3890 C.3   288  GLU288      0.0388
     18  CG        48.6930    6.0510   15.2830 C.3   288  GLU288      0.1160
     19  CD        47.3910    6.2510   16.0340 C.2   288  GLU288      0.3649
     20  OE1       47.1780    5.5600   17.0590 O.co2 288  GLU288     -0.2457
     21  OE2       46.5660    7.0810   15.6380 O.co2 288  GLU288     -0.2457
     22  N         46.7130    2.2610   11.0970 N.3   290  HIS290     -0.1241
     23  CA        46.6120    0.8360   11.3750 C.3   290  HIS290      0.1621
     24  C         46.4440   -0.0410   10.1380 C.2   290  HIS290      0.2264
     25  O         46.3670   -1.2510   10.2590 O.2   290  HIS290     -0.2867
     26  CB        45.4710    0.5770   12.3660 C.3   290  HIS290      0.0745
     27  CG        44.1220    0.9870   11.8740 C.ar  290  HIS290      0.0817
     28  ND1       43.5090    0.3870   10.7970 N.ar  290  HIS290     -0.2268
     29  CD2       43.2500    1.9160   12.3320 C.ar  290  HIS290      0.1154
     30  CE1       42.3260    0.9430   10.6010 C.ar  290  HIS290      0.1986
     31  NE2       42.1450    1.8710   11.5220 N.ar  290  HIS290     -0.2212
     32  N         51.6290   -0.9250   14.7930 N.3   308  ASP308     -0.1239
     33  CA        51.4030   -1.6180   16.0560 C.3   308  ASP308      0.1674
     34  C         51.6220   -3.1290   16.0140 C.2   308  ASP308      0.2266
     35  O         51.6570   -3.7360   17.0740 O.2   308  ASP308     -0.2867
     36  CB        49.9400   -1.4520   16.5240 C.3   308  ASP308      0.1410
     37  CG        49.5540   -0.0500   16.8990 C.2   308  ASP308      0.3668
     38  OD1       50.4210    0.7610   17.2810 O.co2 308  ASP308     -0.2456
     39  OD2       48.3450    0.2880   16.8650 O.co2 308  ASP308     -0.2456
     40  N         52.0240   -5.3800   19.4050 N.3   312  HIS312     -0.1241
     41  CA        50.9970   -6.3580   19.7730 C.3   312  HIS312      0.1621
     42  C         51.6040   -7.7470   19.8910 C.2   312  HIS312      0.2264
     43  O         51.3340   -8.4690   20.8520 O.2   312  HIS312     -0.2867
     44  CB        49.8530   -6.3790   18.7550 C.3   312  HIS312      0.0745
     45  CG        49.0820   -5.0990   18.6700 C.ar  312  HIS312      0.0817
     46  ND1       49.1610   -4.1090   19.6250 N.ar  312  HIS312     -0.2268
     47  CD2       48.2220   -4.6500   17.7260 C.ar  312  HIS312      0.1154
     48  CE1       48.3740   -3.1080   19.2720 C.ar  312  HIS312      0.1986
     49  NE2       47.7870   -3.4160   18.1290 N.ar  312  HIS312     -0.2212
     50  N         41.8330   -6.5140   20.1750 N.3   325  TYR325     -0.1241
     51  CA        42.7350   -6.6560   19.0420 C.3   325  TYR325      0.1605
     52  C         43.8920   -7.6230   19.2980 C.2   325  TYR325      0.2264
     53  O         44.5330   -8.0760   18.3500 O.2   325  TYR325     -0.2867
     54  CB        43.2400   -5.2920   18.5520 C.3   325  TYR325      0.0534
     55  CG        43.8110   -4.3370   19.5840 C.ar  325  TYR325     -0.0201
     56  CD1       45.1070   -4.4780   20.0630 C.ar  325  TYR325     -0.0009
     57  CD2       43.0680   -3.2520   20.0390 C.ar  325  TYR325     -0.0009
     58  CE1       45.6340   -3.5810   20.9770 C.ar  325  TYR325      0.0417
     59  CE2       43.5930   -2.3440   20.9650 C.ar  325  TYR325      0.0417
     60  CZ        44.8800   -2.5050   21.4220 C.ar  325  TYR325      0.1957
     61  OH        45.4110   -1.5840   22.3240 O.3   325  TYR325     -0.2866
     62  N         46.8560  -12.0400   17.2580 N.3   329  TYR329     -0.1241
     63  CA        48.2680  -12.4290   17.3620 C.3   329  TYR329      0.1605
     64  C         48.4310  -13.6670   18.2120 C.2   329  TYR329      0.2264
     65  O         47.7850  -13.8060   19.2450 O.2   329  TYR329     -0.2867
     66  CB        49.1030  -11.2830   17.9720 C.3   329  TYR329      0.0534
     67  CG        48.8650   -9.9940   17.2300 C.ar  329  TYR329     -0.0201
     68  CD1       49.6760   -9.6100   16.1620 C.ar  329  TYR329     -0.0009
     69  CD2       47.7680   -9.2050   17.5430 C.ar  329  TYR329     -0.0009
     70  CE1       49.3920   -8.4580   15.4370 C.ar  329  TYR329      0.0417
     71  CE2       47.4790   -8.0720   16.8270 C.ar  329  TYR329      0.0417
     72  CZ        48.2890   -7.6970   15.7870 C.ar  329  TYR329      0.1957
     73  OH        47.9550   -6.5550   15.1020 O.3   329  TYR329     -0.2866
     74  N         42.0950  -10.7650    8.8610 N.3   351  TRP351     -0.1241
     75  CA        42.0950  -10.4080   10.2730 C.3   351  TRP351      0.1605
     76  C         40.8330  -11.0730   10.8140 C.2   351  TRP351      0.2264
     77  O         39.7290  -10.7160   10.4040 O.2   351  TRP351     -0.2867
     78  CB        42.0030   -8.8890   10.3800 C.3   351  TRP351      0.0550
     79  CG        41.8170   -8.2920   11.7230 C.ar  351  TRP351      0.0003
     80  CD1       40.6560   -7.8260   12.2490 C.ar  351  TRP351      0.0946
     81  CD2       42.8390   -7.9990   12.6840 C.ar  351  TRP351      0.0152
     82  NE1       40.8840   -7.2900   13.4930 N.ar  351  TRP351     -0.2442
     83  CE2       42.2160   -7.3880   13.7860 C.ar  351  TRP351      0.0810
     84  CE3       44.2160   -8.2240   12.7380 C.ar  351  TRP351      0.0012
     85  CZ2       42.9170   -6.9790   14.9150 C.ar  351  TRP351      0.0191
     86  CZ3       44.9170   -7.8130   13.8680 C.ar  351  TRP351      0.0001
     87  CH2       44.2650   -7.2070   14.9380 C.ar  351  TRP351      0.0015
     88  N         35.1010   -7.8620   13.3800 N.3   356  GLU356     -0.1245
     89  CA        36.0660   -7.0840   12.6150 C.3   356  GLU356      0.1567
     90  C         36.6450   -7.8610   11.4340 C.2   356  GLU356      0.2260
     91  O         37.6200   -7.4120   10.8360 O.2   356  GLU356     -0.2867
     92  CB        37.2200   -6.6660   13.5300 C.3   356  GLU356      0.0388
     93  CG        36.8240   -5.7180   14.6430 C.3   356  GLU356      0.1160
     94  CD        37.9630   -5.4180   15.5970 C.2   356  GLU356      0.3649
     95  OE1       39.1420   -5.4640   15.1840 O.co2 356  GLU356     -0.2457
     96  OE2       37.6730   -5.1190   16.7680 O.co2 356  GLU356     -0.2457
     97  N         37.9840   -9.1170    8.2280 N.3   358  HIS358     -0.1241
     98  CA        38.2570   -8.5900    6.8850 C.3   358  HIS358      0.1621
     99  C         39.7110   -8.8450    6.4930 C.2   358  HIS358      0.2264
    100  O         40.5360   -9.1730    7.3430 O.2   358  HIS358     -0.2867
    101  CB        37.9870   -7.0820    6.8020 C.3   358  HIS358      0.0745
    102  CG        39.0400   -6.2440    7.4660 C.ar  358  HIS358      0.0817
    103  ND1       39.1500   -6.1620    8.8320 N.ar  358  HIS358     -0.2268
    104  CD2       40.0370   -5.4770    6.9600 C.ar  358  HIS358      0.1154
    105  CE1       40.1570   -5.3700    9.1450 C.ar  358  HIS358      0.1986
    106  NE2       40.7180   -4.9420    8.0280 N.ar  358  HIS358     -0.2212
    107  N         43.2010   -7.6370    5.8620 N.3   360  ARG360     -0.1245
    108  CA        43.9020   -6.4780    6.3920 C.3   360  ARG360      0.1563
    109  C         45.3100   -6.3830    5.8470 C.2   360  ARG360      0.2260
    110  O         46.0850   -7.3320    5.9530 O.2   360  ARG360     -0.2867
    111  CB        43.9720   -6.5630    7.9120 C.3   360  ARG360      0.0307
    112  CG        44.7020   -5.3980    8.5580 C.3   360  ARG360      0.0489
    113  CD        44.7660   -5.4940   10.0670 C.3   360  ARG360      0.2205
    114  NE        45.5620   -4.3910   10.5980 N.pl3 360  ARG360     -0.0865
    115  CZ        46.6140   -4.5080   11.3930 C.cat 360  ARG360      0.5346
    116  NH1       47.0110   -5.6840   11.8510 N.pl3 360  ARG360      0.1354
    117  NH2       47.2760   -3.4220   11.7470 N.pl3 360  ARG360      0.1354
    118  N         48.6460    5.0280   24.0570 N.3   380  ASP380     -0.1225
    119  CA        47.4650    4.2080   23.8060 C.3   380  ASP380      0.1805
    120  C         47.6240    2.8290   24.4300 C.2   380  ASP380      0.2597
    121  O         46.6900    2.3150   25.0370 O.2   380  ASP380     -0.2718
    122  CB        47.2380    4.0150   22.3030 C.3   380  ASP380      0.1424
    123  CG        46.4740    5.1410   21.6400 C.2   380  ASP380      0.3668
    124  OD1       45.6410    5.8200   22.2710 O.co2 380  ASP380     -0.2456
    125  OD2       46.6350    5.3580   20.4120 O.co2 380  ASP380     -0.2456
    126  N         48.7940    2.2270   24.2690 N.am  381  GLN381     -0.1979
    127  CA        48.9750    0.8410   24.6900 C.3   381  GLN381      0.1601
    128  C         49.1540    0.6810   26.1900 C.2   381  GLN381      0.2287
    129  O         49.1320   -0.4430   26.6950 O.2   381  GLN381     -0.2864
    130  CB        50.1190    0.1860   23.9130 C.3   381  GLN381      0.0394
    131  CG        49.9510    0.2570   22.3920 C.3   381  GLN381      0.0908
    132  CD        48.6070   -0.2320   21.8920 C.2   381  GLN381      0.2608
    133  OE1       48.0080   -1.1480   22.4660 O.2   381  GLN381     -0.2717
    134  NE2       48.1400    0.3590   20.7990 N.am  381  GLN381     -0.0878
    135  N         44.8380    2.9260   27.2260 N.3   384  ASN384     -0.1240
    136  CA        43.5680    2.3110   26.8200 C.3   384  ASN384      0.1653
    137  C         43.3020    0.9780   27.5000 C.2   384  ASN384      0.2266
    138  O         42.2850    0.3480   27.2530 O.2   384  ASN384     -0.2867
    139  CB        43.4620    2.2290   25.2980 C.3   384  ASN384      0.1155
    140  CG        43.4420    3.6020   24.6550 C.2   384  ASN384      0.2627
    141  OD1       43.0010    4.5800   25.2600 O.2   384  ASN384     -0.2716
    142  ND2       43.9170    3.6810   23.4240 N.am  384  ASN384     -0.0877
@<TRIPOS>BOND
     1   109   110    2
     2   109   108    1
     3   107   108    1
     4   108   111    1
     5    99    98    1
     6    99   100    2
     7   101    98    1
     8   101   102    1
     9    98    97    1
    10   104   102   ar
    11   104   106   ar
    12   102   103   ar
    13   111   112    1
    14   106   105   ar
    15   112   113    1
    16   103   105   ar
    17     3     4    2
    18     3     2    1
    19    74    75    1
    20     1     2    1
    21     2     5    1
    22   113   114    1
    23    24    25    2
    24    24    23    1
    25    75    78    1
    26    75    76    1
    27    78    79    1
    28    77    76    2
    29   114   115    2
    30    30    28   ar
    31    30    31   ar
    32     7     9   ar
    33     7     6   ar
    34    28    27   ar
    35     5     6    1
    36    91    90    2
    37     9    11   ar
    38    22    23    1
    39     6     8   ar
    40    23    26    1
    41   115   117    1
    42   115   116    1
    43    90    89    1
    44    31    29   ar
    45    79    80   ar
    46    79    81   ar
    47    11    12    1
    48    11    10   ar
    49    27    29   ar
    50    27    26    1
    51     8    10   ar
    52    16    15    2
    53    13    14    1
    54    80    82   ar
    55    15    14    1
    56    89    88    1
    57    89    92    1
    58    81    84   ar
    59    81    83   ar
    60    84    86   ar
    61    14    17    1
    62    82    83   ar
    63    92    93    1
    64    83    85   ar
    65    86    87   ar
    66    17    18    1
    67    93    94    1
    68    32    33    1
    69    85    87   ar
    70    73    72    1
    71    95    94   ar
    72    18    19    1
    73    70    72   ar
    74    70    68   ar
    75    94    96   ar
    76    21    19   ar
    77    72    71   ar
    78    34    33    1
    79    34    35    2
    80    19    20   ar
    81    33    36    1
    82    68    67   ar
    83    36    37    1
    84    71    69   ar
    85    39    37   ar
    86    37    38   ar
    87    67    69   ar
    88    67    66    1
    89    62    63    1
    90    63    66    1
    91    63    64    1
    92    47    49   ar
    93    47    45   ar
    94    49    48   ar
    95    64    65    2
    96    53    52    2
    97    54    51    1
    98    54    55    1
    99    45    44    1
   100    45    46   ar
   101    44    41    1
   102    51    52    1
   103    51    50    1
   104    48    46   ar
   105    40    41    1
   106    55    57   ar
   107    55    56   ar
   108    41    42    1
   109    42    43    2
   110    57    59   ar
   111    56    58   ar
   112   125   123   ar
   113   134   132   am
   114    59    60   ar
   115    58    60   ar
   116    60    61    1
   117   123   124   ar
   118   123   122    1
   119   132   131    1
   120   132   133    2
   121   122   119    1
   122   131   130    1
   123   142   140   am
   124   119   118    1
   125   119   120    1
   126   130   127    1
   127   126   120   am
   128   126   127    1
   129   120   121    2
   130   140   141    2
   131   140   139    1
   132   127   128    1
   133   139   136    1
   134   128   129    2
   135   136   135    1
   136   136   137    1
   137   138   137    2
