@<TRIPOS>MOLECULE
tmp/2bibA00.pdb
 135 129 0 0 0
SMALL
GASTEIGER

@<TRIPOS>ATOM
      1  N        119.9050    1.9350  -13.6570 N.3    17  GLY17      -0.1225
      2  CA       120.9980    1.1210  -14.1130 C.3    17  GLY17       0.1811
      3  C        120.9230   -0.2820  -13.5830 C.2    17  GLY17       0.2280
      4  O        120.6050   -0.4960  -12.4100 O.2    17  GLY17      -0.2866
      5  N        118.2800   -6.8490  -12.2180 N.3    36  GLU36      -0.1245
      6  CA       117.3950   -6.7350  -11.0580 C.3    36  GLU36       0.1567
      7  C        116.2130   -7.6850  -11.1610 C.2    36  GLU36       0.2260
      8  O        115.6330   -7.8550  -12.2530 O.2    36  GLU36      -0.2867
      9  CB       116.8890   -5.2800  -10.9140 C.3    36  GLU36       0.0388
     10  CG       116.1020   -5.0060   -9.6280 C.3    36  GLU36       0.1160
     11  CD       116.9560   -5.2010   -8.3800 C.2    36  GLU36       0.3649
     12  OE1      117.8790   -4.3840   -8.1840 O.co2  36  GLU36      -0.2457
     13  OE2      116.7120   -6.1750   -7.6120 O.co2  36  GLU36      -0.2457
     14  N        116.9190    1.8170    0.8110 N.3    53  GLY53      -0.1225
     15  CA       117.5480    1.7080   -0.4940 C.3    53  GLY53       0.1811
     16  C        117.3990    0.3610   -1.1990 C.2    53  GLY53       0.2280
     17  O        117.7350    0.2570   -2.3800 O.2    53  GLY53      -0.2866
     18  N        115.9820   -2.2130   -3.5250 N.3    55  GLU55      -0.1245
     19  CA       115.0990   -2.0380   -4.7090 C.3    55  GLU55       0.1567
     20  C        113.7180   -2.7330   -4.5930 C.2    55  GLU55       0.2260
     21  O        113.6490   -3.9340   -4.3040 O.2    55  GLU55      -0.2867
     22  CB       115.8120   -2.5430   -5.9770 C.3    55  GLU55       0.0388
     23  CG       115.0770   -2.2260   -7.2750 C.3    55  GLU55       0.1160
     24  CD       114.9630   -0.7430   -7.4990 C.2    55  GLU55       0.3649
     25  OE1      115.9550   -0.1250   -7.9220 O.co2  55  GLU55      -0.2457
     26  OE2      113.8950   -0.1890   -7.2130 O.co2  55  GLU55      -0.2457
     27  N        125.2790   -6.9660   -5.6190 N.3    87  HIS87      -0.1226
     28  CA       124.2110   -5.9750   -5.7500 C.3    87  HIS87       0.1752
     29  C        123.0200   -6.5420   -6.5310 C.2    87  HIS87       0.2597
     30  O        123.1900   -7.1960   -7.5510 O.2    87  HIS87      -0.2718
     31  CB       124.7500   -4.6600   -6.3360 C.3    87  HIS87       0.0759
     32  CG       125.6510   -3.9180   -5.3830 C.ar   87  HIS87       0.0818
     33  ND1      126.5090   -2.9090   -5.7820 N.ar   87  HIS87      -0.2268
     34  CD2      125.8350   -4.0670   -4.0440 C.ar   87  HIS87       0.1154
     35  CE1      127.1760   -2.4670   -4.7240 C.ar   87  HIS87       0.1986
     36  NE2      126.7840   -3.1480   -3.6570 N.ar   87  HIS87      -0.2212
     37  N        121.8220   -6.2970   -6.0060 N.am   88  SER88      -0.1938
     38  CA       120.5910   -6.8650   -6.5410 C.3    88  SER88       0.2055
     39  C        120.4260   -6.6270   -8.0480 C.2    88  SER88       0.2643
     40  O        119.8260   -7.4440   -8.7410 O.2    88  SER88      -0.2714
     41  CB       119.3920   -6.2790   -5.7890 C.3    88  SER88       0.2130
     42  OG       119.2440   -4.8990   -6.0830 O.3    88  SER88      -0.2179
     43  N        120.9650   -5.5150   -8.5560 N.am   89  ASP89      -0.1971
     44  CA       120.7890   -5.1620   -9.9680 C.3    89  ASP89       0.1709
     45  C        121.7520   -5.9220  -10.8970 C.2    89  ASP89       0.2293
     46  O        121.7460   -5.7040  -12.1210 O.2    89  ASP89      -0.2864
     47  CB       120.8860   -3.6390  -10.2010 C.3    89  ASP89       0.1436
     48  CG       122.2310   -3.0610   -9.7800 C.2    89  ASP89       0.3671
     49  OD1      122.6120   -3.2680   -8.6060 O.co2  89  ASP89      -0.2456
     50  OD2      122.9850   -2.3920  -10.5360 O.co2  89  ASP89      -0.2456
     51  N        125.6290    0.3980    3.0290 N.3   121  ARG121     -0.1245
     52  CA       125.8410   -0.1930    1.6980 C.3   121  ARG121      0.1563
     53  C        125.7110   -1.7340    1.7580 C.2   121  ARG121      0.2260
     54  O        126.4090   -2.4740    1.0460 O.2   121  ARG121     -0.2867
     55  CB       127.2100    0.2630    1.1280 C.3   121  ARG121      0.0307
     56  CG       127.3780    1.8290    1.0560 C.3   121  ARG121      0.0489
     57  CD       128.5570    2.3430    0.1910 C.3   121  ARG121      0.2205
     58  NE       128.1660    2.4250   -1.2300 N.pl3 121  ARG121     -0.0865
     59  CZ       127.6220    3.4930   -1.8210 C.cat 121  ARG121      0.5346
     60  NH1      127.4100    4.6250   -1.1520 N.pl3 121  ARG121      0.1354
     61  NH2      127.2760    3.4250   -3.0980 N.pl3 121  ARG121      0.1354
     62  N        122.3070   -3.1910    2.1140 N.3   123  TRP123     -0.1227
     63  CA       121.0450   -3.4050    1.4040 C.3   123  TRP123      0.1737
     64  C        120.5650   -4.8660    1.5260 C.2   123  TRP123      0.2595
     65  O        120.4280   -5.3980    2.6410 O.2   123  TRP123     -0.2718
     66  CB       121.2030   -2.9670   -0.0780 C.3   123  TRP123      0.0564
     67  CG       121.5540   -1.4920   -0.2420 C.ar  123  TRP123      0.0003
     68  CD1      120.8040   -0.4260    0.1540 C.ar  123  TRP123      0.0946
     69  CD2      122.7490   -0.9400   -0.8260 C.ar  123  TRP123      0.0152
     70  NE1      121.4410    0.7540   -0.1550 N.ar  123  TRP123     -0.2442
     71  CE2      122.6390    0.4690   -0.7600 C.ar  123  TRP123      0.0810
     72  CE3      123.9010   -1.4970   -1.4120 C.ar  123  TRP123      0.0012
     73  CZ2      123.6410    1.3340   -1.2460 C.ar  123  TRP123      0.0191
     74  CZ3      124.8910   -0.6440   -1.9050 C.ar  123  TRP123      0.0001
     75  CH2      124.7580    0.7550   -1.8110 C.ar  123  TRP123      0.0015
     76  N        120.3130   -5.5020    0.3820 N.am  124  ASP124     -0.1960
     77  CA       120.0010   -6.9310    0.3150 C.3   124  ASP124      0.1840
     78  C        121.0850   -7.7360   -0.4170 C.2   124  ASP124      0.2622
     79  O        120.7710   -8.6950   -1.1260 O.2   124  ASP124     -0.2715
     80  CB       118.6460   -7.1550   -0.3610 C.3   124  ASP124      0.1450
     81  CG       118.5730   -6.5640   -1.7580 C.2   124  ASP124      0.3671
     82  OD1      119.4230   -5.7220   -2.1480 O.co2 124  ASP124     -0.2456
     83  OD2      117.6800   -6.9160   -2.5460 O.co2 124  ASP124     -0.2456
     84  N        122.3500   -7.3420   -0.2410 N.am  125  ASN125     -0.1972
     85  CA       123.4770   -8.0450   -0.8520 C.3   125  ASN125      0.1688
     86  C        123.4950   -9.5220   -0.4080 C.2   125  ASN125      0.2292
     87  O        123.6170  -10.4330   -1.2220 O.2   125  ASN125     -0.2864
     88  CB       124.8300   -7.4290   -0.4390 C.3   125  ASN125      0.1181
     89  CG       124.9960   -5.9700   -0.8310 C.2   125  ASN125      0.2629
     90  OD1      124.2350   -5.4180   -1.6290 O.2   125  ASN125     -0.2716
     91  ND2      126.0110   -5.3220   -0.2340 N.am  125  ASN125     -0.0877
     92  N        132.3820   -0.8950   -0.4780 N.3   181  ASP181     -0.1239
     93  CA       131.1930   -1.2260   -1.2440 C.3   181  ASP181      0.1674
     94  C        131.5720   -2.4440   -2.0870 C.2   181  ASP181      0.2266
     95  O        132.7300   -2.5750   -2.5110 O.2   181  ASP181     -0.2867
     96  CB       130.8110   -0.0300   -2.1390 C.3   181  ASP181      0.1410
     97  CG       129.5640   -0.2730   -2.9580 C.2   181  ASP181      0.3668
     98  OD1      128.4320    0.0580   -2.5140 O.co2 181  ASP181     -0.2456
     99  OD2      129.6210   -0.7830   -4.0820 O.co2 181  ASP181     -0.2456
    100  N        131.0410   -3.0610   -5.0880 N.3   183  ASN183     -0.1240
    101  CA       131.4720   -2.6610   -6.4420 C.3   183  ASN183      0.1653
    102  C        132.9730   -2.8750   -6.6880 C.2   183  ASN183      0.2266
    103  O        133.3850   -3.3070   -7.7620 O.2   183  ASN183     -0.2867
    104  CB       131.1390   -1.1910   -6.6980 C.3   183  ASN183      0.1155
    105  CG       129.6720   -0.9560   -6.9690 C.2   183  ASN183      0.2627
    106  OD1      128.8680   -1.9060   -7.0000 O.2   183  ASN183     -0.2716
    107  ND2      129.2990    0.3180   -7.1670 N.am  183  ASN183     -0.0877
    108  N        130.4860   -3.3500  -11.7770 N.3   203  ASP203     -0.1239
    109  CA       130.3910   -2.0250  -11.1530 C.3   203  ASP203      0.1674
    110  C        131.7740   -1.5800  -10.6520 C.2   203  ASP203      0.2266
    111  O        131.8750   -0.7940   -9.7210 O.2   203  ASP203     -0.2867
    112  CB       129.3100   -1.9950  -10.0020 C.3   203  ASP203      0.1410
    113  CG       127.8550   -1.9050  -10.5240 C.2   203  ASP203      0.3668
    114  OD1      126.8140   -2.0070   -9.7260 O.co2 203  ASP203     -0.2456
    115  OD2      127.6860   -1.7160  -11.7570 O.co2 203  ASP203     -0.2456
    116  N        129.9840    0.5580  -13.5360 N.3   228  HIS228     -0.1226
    117  CA       128.9930    1.1380  -12.6090 C.3   228  HIS228      0.1752
    118  C        127.9990    2.1110  -13.2880 C.2   228  HIS228      0.2596
    119  O        127.7580    3.2180  -12.7900 O.2   228  HIS228     -0.2718
    120  CB       129.6960    1.8010  -11.4130 C.3   228  HIS228      0.0759
    121  CG       128.7820    2.2060  -10.2930 C.ar  228  HIS228      0.0818
    122  ND1      129.0350    3.3050   -9.4960 N.ar  228  HIS228     -0.2268
    123  CD2      127.6520    1.6450   -9.8060 C.ar  228  HIS228      0.1154
    124  CE1      128.0810    3.4170   -8.5850 C.ar  228  HIS228      0.1986
    125  NE2      127.2350    2.4160   -8.7460 N.ar  228  HIS228     -0.2212
    126  N        127.4850    1.6940  -14.4470 N.am  229  HIS229     -0.1975
    127  CA       126.3100    2.2940  -15.1060 C.3   229  HIS229      0.1656
    128  C        126.5150    3.6880  -15.7130 C.2   229  HIS229      0.2291
    129  O        126.2960    3.8750  -16.9240 O.2   229  HIS229     -0.2864
    130  CB       125.0640    2.2750  -14.1830 C.3   229  HIS229      0.0771
    131  CG       124.7880    0.9330  -13.5710 C.ar  229  HIS229      0.0820
    132  ND1      124.2930   -0.1350  -14.2980 N.ar  229  HIS229     -0.2267
    133  CD2      124.9600    0.4820  -12.3070 C.ar  229  HIS229      0.1154
    134  CE1      124.1640   -1.1810  -13.5010 C.ar  229  HIS229      0.1986
    135  NE2      124.5630   -0.8350  -12.2890 N.ar  229  HIS229     -0.2212
@<TRIPOS>BOND
     1   129   128    2
     2   128   127    1
     3   127   126    1
     4   127   130    1
     5   126   118   am
     6   132   131   ar
     7   132   134   ar
     8   130   131    1
     9     2     1    1
    10     2     3    1
    11     3     4    2
    12   131   133   ar
    13   116   117    1
    14   134   135   ar
    15   118   119    2
    16   118   117    1
    17   117   120    1
    18   133   135   ar
    19     8     7    2
    20     5     6    1
    21    46    45    2
    22   108   109    1
    23   115   113   ar
    24   120   121    1
    25     7     6    1
    26   109   110    1
    27   109   112    1
    28     6     9    1
    29     9    10    1
    30    45    44    1
    31   110   111    2
    32    50    48   ar
    33   113   112    1
    34   113   114   ar
    35   121   123   ar
    36   121   122   ar
    37    47    44    1
    38    47    48    1
    39    44    43    1
    40   123   125   ar
    41    48    49   ar
    42    10    11    1
    43   122   124   ar
    44   125   124   ar
    45    40    39    2
    46    43    39   am
    47    11    12   ar
    48    11    13   ar
    49    39    38    1
    50    25    24   ar
    51   103   102    2
    52    30    29    2
    53    24    23    1
    54    24    26   ar
    55    23    22    1
    56   107   105   am
    57   106   105    2
    58   105   104    1
    59   104   101    1
    60   102   101    1
    61    38    37    1
    62    38    41    1
    63    29    37   am
    64    29    28    1
    65   101   100    1
    66    31    28    1
    67    31    32    1
    68    42    41    1
    69    22    19    1
    70    33    32   ar
    71    33    35   ar
    72    28    27    1
    73    32    34   ar
    74    35    36   ar
    75    19    20    1
    76    19    18    1
    77    20    21    2
    78    99    97   ar
    79    34    36   ar
    80    61    59    1
    81    97    98   ar
    82    97    96    1
    83    83    81   ar
    84    95    94    2
    85    17    16    2
    86    82    81   ar
    87    96    93    1
    88    94    93    1
    89    74    75   ar
    90    74    72   ar
    91    59    58    2
    92    59    60    1
    93    75    73   ar
    94    81    80    1
    95    90    89    2
    96    72    69   ar
    97    73    71   ar
    98    93    92    1
    99    58    57    1
   100    87    86    2
   101    16    15    1
   102    79    78    2
   103    85    88    1
   104    85    86    1
   105    85    84    1
   106    89    88    1
   107    89    91   am
   108    69    71   ar
   109    69    67   ar
   110    71    70   ar
   111    15    14    1
   112    78    84   am
   113    78    77    1
   114    80    77    1
   115    67    66    1
   116    67    68   ar
   117    70    68   ar
   118    66    63    1
   119    57    56    1
   120    77    76    1
   121    76    64   am
   122    54    53    2
   123    56    55    1
   124    55    52    1
   125    63    64    1
   126    63    62    1
   127    64    65    2
   128    52    53    1
   129    52    51    1
