@<TRIPOS>MOLECULE
tmp/2bifB02.pdb
 116 113 0 0 0
SMALL
GASTEIGER

@<TRIPOS>ATOM
      1  N         86.6440  -26.0110  -29.7660 N.3   200  ARG200     -0.1245
      2  CA        86.0780  -24.7100  -29.4370 C.3   200  ARG200      0.1563
      3  C         86.6250  -23.6470  -30.3520 C.2   200  ARG200      0.2260
      4  O         85.8950  -22.7960  -30.7720 O.2   200  ARG200     -0.2867
      5  CB        86.3640  -24.3390  -27.9960 C.3   200  ARG200      0.0307
      6  CG        85.6950  -25.2620  -27.0350 C.3   200  ARG200      0.0489
      7  CD        84.5780  -24.5630  -26.3750 C.3   200  ARG200      0.2205
      8  NE        83.2190  -25.0330  -26.7900 N.pl3 200  ARG200     -0.0865
      9  CZ        82.1860  -24.2070  -26.9820 C.cat 200  ARG200      0.5346
     10  NH1       82.3330  -22.8760  -26.8280 N.pl3 200  ARG200      0.1354
     11  NH2       80.9930  -24.7130  -27.1400 N.pl3 200  ARG200      0.1354
     12  N         84.8840  -24.0940  -33.6450 N.3   203  TYR203     -0.1241
     13  CA        83.5110  -23.6290  -33.4840 C.3   203  TYR203      0.1605
     14  C         83.4510  -22.1160  -33.6000 C.2   203  TYR203      0.2264
     15  O         82.6910  -21.5840  -34.3690 O.2   203  TYR203     -0.2867
     16  CB        82.9520  -24.1040  -32.1540 C.3   203  TYR203      0.0534
     17  CG        81.5180  -23.7040  -31.9260 C.ar  203  TYR203     -0.0201
     18  CD1       80.6140  -23.6180  -32.9870 C.ar  203  TYR203     -0.0009
     19  CD2       81.0530  -23.4330  -30.6540 C.ar  203  TYR203     -0.0009
     20  CE1       79.2820  -23.2740  -32.7740 C.ar  203  TYR203      0.0417
     21  CE2       79.7260  -23.0880  -30.4360 C.ar  203  TYR203      0.0417
     22  CZ        78.8520  -23.0110  -31.4900 C.ar  203  TYR203      0.1957
     23  OH        77.5520  -22.6720  -31.2540 O.3   203  TYR203     -0.2866
     24  N         66.7810   -9.2020  -29.4830 N.3   263  PHE263     -0.1241
     25  CA        66.8540  -10.1530  -28.3780 C.3   263  PHE263      0.1605
     26  C         66.6550   -9.4240  -27.0580 C.2   263  PHE263      0.2264
     27  O         67.0710   -8.2800  -26.9080 O.2   263  PHE263     -0.2867
     28  CB        68.2150  -10.8410  -28.3450 C.3   263  PHE263      0.0534
     29  CG        68.4830  -11.7300  -29.5200 C.ar  263  PHE263     -0.0203
     30  CD1       68.0360  -13.0450  -29.5240 C.ar  263  PHE263     -0.0042
     31  CD2       69.1940  -11.2580  -30.6100 C.ar  263  PHE263     -0.0042
     32  CE1       68.2960  -13.8810  -30.6030 C.ar  263  PHE263     -0.0003
     33  CE2       69.4630  -12.0750  -31.6980 C.ar  263  PHE263     -0.0003
     34  CZ        69.0150  -13.3910  -31.7000 C.ar  263  PHE263     -0.0000
     35  N         65.5460  -14.6010  -23.9680 N.3   284  PHE284     -0.1227
     36  CA        66.4720  -15.6110  -23.4980 C.3   284  PHE284      0.1736
     37  C         66.9170  -15.3650  -22.0820 C.2   284  PHE284      0.2595
     38  O         67.4280  -14.3000  -21.7610 O.2   284  PHE284     -0.2718
     39  CB        67.6790  -15.6930  -24.4340 C.3   284  PHE284      0.0547
     40  CG        67.3830  -16.3970  -25.7130 C.ar  284  PHE284     -0.0202
     41  CD1       67.2740  -17.7730  -25.7310 C.ar  284  PHE284     -0.0042
     42  CD2       67.1270  -15.6830  -26.8760 C.ar  284  PHE284     -0.0042
     43  CE1       66.9040  -18.4350  -26.8770 C.ar  284  PHE284     -0.0003
     44  CE2       66.7560  -16.3360  -28.0410 C.ar  284  PHE284     -0.0003
     45  CZ        66.6430  -17.7270  -28.0380 C.ar  284  PHE284     -0.0000
     46  N         66.7430  -16.3790  -21.2440 N.am  285  LYS285     -0.1966
     47  CA        67.1300  -16.2960  -19.8300 C.3   285  LYS285      0.1728
     48  C         68.6260  -16.1300  -19.6040 C.2   285  LYS285      0.2616
     49  O         69.0560  -15.6280  -18.5530 O.2   285  LYS285     -0.2715
     50  CB        66.5630  -17.4800  -19.0270 C.3   285  LYS285      0.0311
     51  CG        67.4950  -18.6000  -18.6910 C.3   285  LYS285      0.0038
     52  CD        66.7380  -19.6630  -17.9310 C.3   285  LYS285      0.0206
     53  CE        67.5280  -20.9570  -17.8740 C.3   285  LYS285      0.1093
     54  NZ        66.5870  -22.1030  -17.8530 N.3   285  LYS285     -0.1314
     55  N         69.4010  -16.4390  -20.6470 N.am  286  VAL286     -0.1963
     56  CA        70.8500  -16.3270  -20.5860 C.3   286  VAL286      0.1727
     57  C         71.2130  -14.8340  -20.5710 C.2   286  VAL286      0.2616
     58  O         72.2860  -14.4340  -20.1210 O.2   286  VAL286     -0.2715
     59  CB        71.5180  -17.0530  -21.7850 C.3   286  VAL286      0.0290
     60  CG1       71.1600  -16.3890  -23.0810 C.3   286  VAL286      0.0023
     61  CG2       73.0210  -17.0790  -21.6120 C.3   286  VAL286      0.0023
     62  N         70.3010  -14.0070  -21.0560 N.am  287  LEU287     -0.1977
     63  CA        70.5240  -12.5720  -21.0620 C.3   287  LEU287      0.1596
     64  C         70.1110  -11.8900  -19.7370 C.2   287  LEU287      0.2287
     65  O         70.3340  -10.6820  -19.5760 O.2   287  LEU287     -0.2864
     66  CB        69.7670  -11.9360  -22.2170 C.3   287  LEU287      0.0297
     67  CG        70.4050  -12.0050  -23.5910 C.3   287  LEU287      0.0022
     68  CD1       69.3840  -11.5740  -24.6080 C.3   287  LEU287      0.0001
     69  CD2       71.6510  -11.1030  -23.6390 C.3   287  LEU287      0.0001
     70  N         78.9190  -16.5760  -22.8320 N.3   337  GLU337     -0.1231
     71  CA        79.7190  -17.1150  -23.9580 C.3   337  GLU337      0.1684
     72  C         78.8020  -17.4370  -25.1400 C.2   337  GLU337      0.2434
     73  O         79.1640  -17.1690  -26.2930 O.2   337  GLU337     -0.2733
     74  CB        80.5040  -18.3880  -23.5830 C.3   337  GLU337      0.0402
     75  CG        81.5650  -18.8560  -24.6370 C.3   337  GLU337      0.1161
     76  CD        80.9860  -19.3720  -25.9720 C.2   337  GLU337      0.3649
     77  OE1       80.1080  -20.2710  -25.9660 O.co2 337  GLU337     -0.2457
     78  OE2       81.4240  -18.8680  -27.0330 O.co2 337  GLU337     -0.2457
     79  N         77.6450  -18.0870  -24.8780 N.am  338  PRO338     -0.2718
     80  CA        76.7570  -18.3950  -25.9980 C.3   338  PRO338      0.1535
     81  C         76.2090  -17.1170  -26.6340 C.2   338  PRO338      0.2598
     82  O         75.8790  -17.1320  -27.8140 O.2   338  PRO338     -0.2715
     83  CB        75.6620  -19.2420  -25.3500 C.3   338  PRO338      0.0310
     84  CG        76.3540  -19.8900  -24.1930 C.3   338  PRO338      0.0237
     85  CD        77.1710  -18.7500  -23.6480 C.3   338  PRO338      0.0939
     86  N         76.1030  -16.0190  -25.8740 N.am  339  VAL339     -0.1978
     87  CA        75.6240  -14.7430  -26.4350 C.3   339  VAL339      0.1596
     88  C         76.6860  -14.1410  -27.3350 C.2   339  VAL339      0.2287
     89  O         76.3880  -13.6360  -28.4100 O.2   339  VAL339     -0.2864
     90  CB        75.2540  -13.7050  -25.3530 C.3   339  VAL339      0.0276
     91  CG1       74.9190  -12.3680  -25.9830 C.3   339  VAL339      0.0022
     92  CG2       74.0570  -14.1920  -24.5600 C.3   339  VAL339      0.0022
     93  N         76.6620  -16.0700  -30.6510 N.3   342  GLU342     -0.1231
     94  CA        75.5400  -15.7110  -31.4900 C.3   342  GLU342      0.1699
     95  C         75.6680  -14.3130  -32.0610 C.2   342  GLU342      0.2592
     96  O         75.3780  -14.0990  -33.2330 O.2   342  GLU342     -0.2718
     97  CB        74.2170  -15.8900  -30.7610 C.3   342  GLU342      0.0402
     98  CG        72.9910  -15.6230  -31.6510 C.3   342  GLU342      0.1161
     99  CD        72.9020  -16.5210  -32.9030 C.2   342  GLU342      0.3649
    100  OE1       73.5920  -17.5520  -33.0000 O.co2 342  GLU342     -0.2457
    101  OE2       72.1070  -16.1870  -33.8020 O.co2 342  GLU342     -0.2457
    102  N         76.1860  -13.3850  -31.2670 N.am  343  LEU343     -0.1980
    103  CA        76.3730  -12.0150  -31.7350 C.3   343  LEU343      0.1596
    104  C         77.4200  -11.9640  -32.8310 C.2   343  LEU343      0.2287
    105  O         77.3380  -11.1490  -33.7320 O.2   343  LEU343     -0.2864
    106  CB        76.7580  -11.0770  -30.5830 C.3   343  LEU343      0.0297
    107  CG        75.6810  -10.7920  -29.5200 C.3   343  LEU343      0.0022
    108  CD1       76.2770   -9.8160  -28.5480 C.3   343  LEU343      0.0001
    109  CD2       74.3930  -10.2500  -30.1540 C.3   343  LEU343      0.0001
    110  N         70.1250   -5.8940  -28.9290 N.3   351  VAL351     -0.1245
    111  CA        70.0060   -6.6530  -27.6850 C.3   351  VAL351      0.1561
    112  C         69.5510   -5.7020  -26.5800 C.2   351  VAL351      0.2260
    113  O         70.2220   -4.7070  -26.2740 O.2   351  VAL351     -0.2867
    114  CB        71.3460   -7.3170  -27.2300 C.3   351  VAL351      0.0252
    115  CG1       71.1130   -8.1620  -25.9630 C.3   351  VAL351      0.0019
    116  CG2       71.9900   -8.1480  -28.3690 C.3   351  VAL351      0.0019
@<TRIPOS>BOND
     1    15    14    2
     2   101    99   ar
     3   105   104    2
     4    12    13    1
     5    14    13    1
     6    13    16    1
     7    96    95    2
     8   100    99   ar
     9    18    20   ar
    10    18    17   ar
    11    99    98    1
    12   104   103    1
    13    20    22   ar
    14    16    17    1
    15    95    94    1
    16    95   102   am
    17    17    19   ar
    18   103   102    1
    19   103   106    1
    20    34    33   ar
    21    34    32   ar
    22    33    31   ar
    23    98    97    1
    24    22    23    1
    25    22    21   ar
    26    94    97    1
    27    94    93    1
    28     4     3    2
    29    19    21   ar
    30    31    29   ar
    31    32    30   ar
    32   106   107    1
    33     3     2    1
    34   109   107    1
    35     1     2    1
    36    30    29   ar
    37    29    28    1
    38   107   108    1
    39    24    25    1
    40     2     5    1
    41   110   111    1
    42    89    88    2
    43    25    28    1
    44    25    26    1
    45   116   114    1
    46    44    45   ar
    47    44    42   ar
    48    45    43   ar
    49     5     6    1
    50    82    81    2
    51   111   114    1
    52   111   112    1
    53    88    87    1
    54   114   115    1
    55    11     9    1
    56    26    27    2
    57     6     7    1
    58    78    76   ar
    59     9    10    1
    60     9     8    2
    61    43    41   ar
    62    42    40   ar
    63     8     7    1
    64    81    80    1
    65    81    86   am
    66   112   113    2
    67    87    86    1
    68    87    90    1
    69    73    72    2
    70    80    83    1
    71    80    79    1
    72    91    90    1
    73    76    77   ar
    74    76    75    1
    75    41    40   ar
    76    40    39    1
    77    90    92    1
    78    83    84    1
    79    72    79   am
    80    72    71    1
    81    79    85    1
    82    75    74    1
    83    68    67    1
    84    39    36    1
    85    84    85    1
    86    35    36    1
    87    71    74    1
    88    71    70    1
    89    69    67    1
    90    67    66    1
    91    36    37    1
    92    60    59    1
    93    66    63    1
    94    37    38    2
    95    37    46   am
    96    59    61    1
    97    59    56    1
    98    46    47    1
    99    63    62    1
   100    63    64    1
   101    62    57   am
   102    55    56    1
   103    55    48   am
   104    56    57    1
   105    57    58    2
   106    47    48    1
   107    47    50    1
   108    64    65    2
   109    48    49    2
   110    50    51    1
   111    51    52    1
   112    52    53    1
   113    53    54    1
