@<TRIPOS>MOLECULE
tmp/2bifB03.pdb
 96 90 0 0 0
SMALL
GASTEIGER

@<TRIPOS>ATOM
      1  N         94.9350  -13.0640  -42.0940 N.3    15  LYS15      -0.1245
      2  CA        95.5610  -13.8910  -41.0810 C.3    15  LYS15       0.1561
      3  C         95.6180  -13.1300  -39.7710 C.2    15  LYS15       0.2260
      4  O         95.3320  -13.6840  -38.7250 O.2    15  LYS15      -0.2867
      5  CB        96.9960  -14.2420  -41.4700 C.3    15  LYS15       0.0271
      6  CG        97.1790  -15.2960  -42.5450 C.3    15  LYS15       0.0035
      7  CD        98.6660  -15.7520  -42.5890 C.3    15  LYS15       0.0206
      8  CE        99.6170  -14.5740  -42.8830 C.3    15  LYS15       0.1093
      9  NZ        99.2960  -13.8750  -44.1780 N.3    15  LYS15      -0.1314
     10  N        104.9730  -11.8280  -36.6960 N.3    38  VAL38      -0.1231
     11  CA       106.3270  -11.8530  -37.2740 C.3    38  VAL38       0.1692
     12  C        106.6880  -10.5950  -38.0770 C.2    38  VAL38       0.2592
     13  O        107.8620  -10.2270  -38.2050 O.2    38  VAL38      -0.2718
     14  CB       106.5440  -13.1300  -38.1500 C.3    38  VAL38       0.0266
     15  CG1      107.8870  -13.0980  -38.8130 C.3    38  VAL38       0.0020
     16  CG2      106.4780  -14.3590  -37.2850 C.3    38  VAL38       0.0020
     17  N        105.6690   -9.9390  -38.6170 N.am   39  GLY39      -0.1957
     18  CA       105.9010   -8.7400  -39.3790 C.3    39  GLY39       0.1869
     19  C        106.2670   -7.6280  -38.4240 C.2    39  GLY39       0.2309
     20  O        107.0700   -6.7580  -38.7670 O.2    39  GLY39      -0.2863
     21  N        109.7400   -7.9820  -37.4730 N.3    42  ARG42      -0.1245
     22  CA       110.5490   -7.4830  -38.5710 C.3    42  ARG42       0.1563
     23  C        110.6010   -5.9480  -38.5850 C.2    42  ARG42       0.2260
     24  O        111.6720   -5.3760  -38.7370 O.2    42  ARG42      -0.2867
     25  CB       110.0350   -8.0510  -39.8910 C.3    42  ARG42       0.0307
     26  CG       110.8760   -7.6880  -41.0930 C.3    42  ARG42       0.0489
     27  CD       110.2620   -6.5520  -41.9090 C.3    42  ARG42       0.2205
     28  NE       108.8810   -6.8270  -42.2930 N.pl3  42  ARG42      -0.0865
     29  CZ       108.0550   -5.9030  -42.7460 C.cat  42  ARG42       0.5346
     30  NH1      108.4830   -4.6590  -42.8800 N.pl3  42  ARG42       0.1354
     31  NH2      106.7840   -6.1920  -42.9590 N.pl3  42  ARG42       0.1354
     32  N        111.6980   -9.4720  -49.7750 N.3    55  PHE55      -0.1241
     33  CA       110.8460  -10.6560  -49.6220 C.3    55  PHE55       0.1605
     34  C        111.0650  -11.6800  -50.7230 C.2    55  PHE55       0.2264
     35  O        110.4130  -12.7140  -50.7430 O.2    55  PHE55      -0.2867
     36  CB       109.3710  -10.2320  -49.5970 C.3    55  PHE55       0.0534
     37  CG       108.9900   -9.4640  -48.3600 C.ar   55  PHE55      -0.0203
     38  CD1      108.8080  -10.1360  -47.1570 C.ar   55  PHE55      -0.0042
     39  CD2      108.8870   -8.0660  -48.3710 C.ar   55  PHE55      -0.0042
     40  CE1      108.5340   -9.4430  -45.9850 C.ar   55  PHE55      -0.0003
     41  CE2      108.6130   -7.3610  -47.1950 C.ar   55  PHE55      -0.0003
     42  CZ       108.4390   -8.0510  -46.0060 C.ar   55  PHE55      -0.0000
     43  N        114.3000  -12.3830  -42.1900 N.3    66  ARG66      -0.1245
     44  CA       112.9770  -12.9450  -42.0210 C.3    66  ARG66       0.1563
     45  C        113.0090  -14.2460  -41.2130 C.2    66  ARG66       0.2260
     46  O        112.1060  -14.4880  -40.4260 O.2    66  ARG66      -0.2867
     47  CB       112.2620  -13.1130  -43.3740 C.3    66  ARG66       0.0307
     48  CG       111.9440  -11.7970  -44.0810 C.3    66  ARG66       0.0489
     49  CD       111.0290  -11.9320  -45.2940 C.3    66  ARG66       0.2205
     50  NE       111.5800  -12.7750  -46.3560 N.pl3  66  ARG66      -0.0865
     51  CZ       110.9530  -13.8400  -46.8620 C.cat  66  ARG66       0.5346
     52  NH1      109.7480  -14.1820  -46.4040 N.pl3  66  ARG66       0.1354
     53  NH2      111.5460  -14.5990  -47.7910 N.pl3  66  ARG66       0.1354
     54  N        101.4320  -15.6310  -35.9410 N.3    92  ASP92      -0.1225
     55  CA       100.9800  -14.9750  -37.1470 C.3    92  ASP92       0.1805
     56  C        102.1120  -14.7090  -38.1650 C.2    92  ASP92       0.2598
     57  O        102.8990  -13.7740  -38.0350 O.2    92  ASP92      -0.2718
     58  CB       100.2480  -13.6830  -36.7530 C.3    92  ASP92       0.1424
     59  CG        99.6540  -12.9230  -37.9520 C.2    92  ASP92       0.3668
     60  OD1       99.6990  -13.4390  -39.0940 O.co2  92  ASP92      -0.2456
     61  OD2       99.1300  -11.7990  -37.7480 O.co2  92  ASP92      -0.2456
     62  N        102.1560  -15.5450  -39.1920 N.am   93  ALA93      -0.1966
     63  CA       103.1440  -15.4610  -40.2700 C.3    93  ALA93       0.1728
     64  C        102.5220  -16.1520  -41.4880 C.2    93  ALA93       0.2616
     65  O        101.5190  -16.8470  -41.3660 O.2    93  ALA93      -0.2715
     66  CB       104.4520  -16.1620  -39.8730 C.3    93  ALA93       0.0334
     67  N        103.0580  -15.8920  -42.6720 N.am   94  THR94      -0.1951
     68  CA       102.5350  -16.5130  -43.8910 C.3    94  THR94       0.1897
     69  C        102.5860  -18.0340  -43.7800 C.2    94  THR94       0.2313
     70  O        101.5730  -18.7070  -43.9970 O.2    94  THR94      -0.2863
     71  CB       103.3250  -16.0810  -45.1010 C.3    94  THR94       0.1794
     72  OG1      104.7120  -16.1650  -44.7830 O.3    94  THR94      -0.2208
     73  CG2      102.9650  -14.6550  -45.5010 C.3    94  THR94       0.0378
     74  N        104.9720   -8.2700  -53.4630 N.3   157  ARG157     -0.1245
     75  CA       105.3580   -8.9150  -52.2330 C.3   157  ARG157      0.1563
     76  C        104.5390  -10.1670  -52.0750 C.2   157  ARG157      0.2260
     77  O        105.0240  -11.1520  -51.5200 O.2   157  ARG157     -0.2867
     78  CB       105.1210   -7.9800  -51.0650 C.3   157  ARG157      0.0307
     79  CG       105.5370   -8.4640  -49.7050 C.3   157  ARG157      0.0489
     80  CD       105.5350   -7.2100  -48.9050 C.3   157  ARG157      0.2205
     81  NE       105.2810   -7.3300  -47.4840 N.pl3 157  ARG157     -0.0865
     82  CZ       105.2380   -6.2950  -46.6560 C.cat 157  ARG157      0.5346
     83  NH1      105.4470   -5.0870  -47.0930 N.pl3 157  ARG157      0.1354
     84  NH2      104.9060   -6.4580  -45.4030 N.pl3 157  ARG157      0.1354
     85  N        105.4610  -14.7520  -52.5330 N.3   161  TYR161     -0.1241
     86  CA       104.8860  -15.8880  -51.7950 C.3   161  TYR161      0.1605
     87  C        104.0790  -16.8900  -52.6490 C.2   161  TYR161      0.2264
     88  O        104.1810  -18.1070  -52.4710 O.2   161  TYR161     -0.2867
     89  CB       103.9950  -15.3770  -50.6540 C.3   161  TYR161      0.0534
     90  CG       104.7690  -14.7340  -49.5460 C.ar  161  TYR161     -0.0201
     91  CD1      105.4700  -15.5180  -48.6260 C.ar  161  TYR161     -0.0009
     92  CD2      104.8460  -13.3420  -49.4270 C.ar  161  TYR161     -0.0009
     93  CE1      106.2420  -14.9370  -47.6020 C.ar  161  TYR161      0.0417
     94  CE2      105.6210  -12.7420  -48.3940 C.ar  161  TYR161      0.0417
     95  CZ       106.3120  -13.5570  -47.4950 C.ar  161  TYR161      0.1957
     96  OH       107.0640  -13.0130  -46.4980 O.3   161  TYR161     -0.2866
@<TRIPOS>BOND
     1    74    75    1
     2    87    88    2
     3    87    86    1
     4    85    86    1
     5    75    76    1
     6    75    78    1
     7    76    77    2
     8    86    89    1
     9    78    79    1
    10    35    34    2
    11    34    33    1
    12    89    90    1
    13    32    33    1
    14    79    80    1
    15    33    36    1
    16    36    37    1
    17    90    92   ar
    18    90    91   ar
    19    92    94   ar
    20    80    81    1
    21    91    93   ar
    22    94    95   ar
    23    39    37   ar
    24    39    41   ar
    25    37    38   ar
    26    53    51    1
    27    93    95   ar
    28    95    96    1
    29    81    82    2
    30    41    42   ar
    31    38    40   ar
    32    83    82    1
    33    51    52    1
    34    51    50    2
    35    82    84    1
    36    50    49    1
    37    42    40   ar
    38    73    71    1
    39    49    48    1
    40    71    72    1
    41    71    68    1
    42     9     8    1
    43    48    47    1
    44    70    69    2
    45    68    69    1
    46    68    67    1
    47    47    44    1
    48    31    29    1
    49     8     7    1
    50    30    29    1
    51    29    28    2
    52    67    64   am
    53     7     6    1
    54     6     5    1
    55    28    27    1
    56    43    44    1
    57     1     2    1
    58    44    45    1
    59    27    26    1
    60    64    65    2
    61    64    63    1
    62     5     2    1
    63    45    46    2
    64    26    25    1
    65     2     3    1
    66    63    66    1
    67    63    62    1
    68    25    22    1
    69     3     4    2
    70    18    17    1
    71    18    19    1
    72    62    56   am
    73    60    59   ar
    74    15    14    1
    75    20    19    2
    76    24    23    2
    77    17    12   am
    78    23    22    1
    79    22    21    1
    80    13    12    2
    81    56    57    2
    82    56    55    1
    83    14    16    1
    84    14    11    1
    85    12    11    1
    86    59    61   ar
    87    59    58    1
    88    11    10    1
    89    55    58    1
    90    55    54    1
