@<TRIPOS>MOLECULE
tmp/2bifB01.pdb
 184 173 0 0 0
SMALL
GASTEIGER

@<TRIPOS>ATOM
      1  N         70.0120   -1.0480  -22.4380 N.3   219  ARG219     -0.1245
      2  CA        69.3990   -1.6910  -21.2790 C.3   219  ARG219      0.1563
      3  C         67.9170   -1.5350  -21.4560 C.2   219  ARG219      0.2260
      4  O         67.4640   -0.8520  -22.3730 O.2   219  ARG219     -0.2867
      5  CB        69.7840   -0.9510  -19.9720 C.3   219  ARG219      0.0307
      6  CG        71.2930   -0.8780  -19.6750 C.3   219  ARG219      0.0489
      7  CD        71.6380    0.1430  -18.5930 C.3   219  ARG219      0.2205
      8  NE        71.0910   -0.1750  -17.2710 N.pl3 219  ARG219     -0.0865
      9  CZ        71.2780    0.5720  -16.1760 C.cat 219  ARG219      0.5346
     10  NH1       71.9950    1.6870  -16.2360 N.pl3 219  ARG219      0.1354
     11  NH2       70.7790    0.1880  -15.0000 N.pl3 219  ARG219      0.1354
     12  N         64.6700    0.9450  -10.3580 N.3   226  ASN226     -0.1240
     13  CA        65.7500    1.8430  -10.7530 C.3   226  ASN226      0.1653
     14  C         65.5400    3.1570  -10.0100 C.2   226  ASN226      0.2266
     15  O         66.5000    3.8150   -9.6070 O.2   226  ASN226     -0.2867
     16  CB        65.7430    2.1220  -12.2570 C.3   226  ASN226      0.1155
     17  CG        66.4200    1.0380  -13.0540 C.2   226  ASN226      0.2627
     18  OD1       66.2010    0.9220  -14.2620 O.2   226  ASN226     -0.2716
     19  ND2       67.3150    0.2880  -12.4000 N.am  226  ASN226     -0.0877
     20  N         67.2910    0.1920   -6.2070 N.3   230  ARG230     -0.1231
     21  CA        67.3760   -1.2230   -5.8980 C.3   230  ARG230      0.1694
     22  C         67.9330   -2.0880   -7.0460 C.2   230  ARG230      0.2592
     23  O         67.6340   -1.8660   -8.2160 O.2   230  ARG230     -0.2718
     24  CB        66.0210   -1.7050   -5.4300 C.3   230  ARG230      0.0321
     25  CG        65.6510   -1.0680   -4.0940 C.3   230  ARG230      0.0489
     26  CD        64.3290   -1.5870   -3.5120 C.3   230  ARG230      0.2205
     27  NE        64.0700   -0.9930   -2.2100 N.pl3 230  ARG230     -0.0865
     28  CZ        64.6700   -1.3560   -1.0830 C.cat 230  ARG230      0.5346
     29  NH1       65.5650   -2.3250   -1.0830 N.pl3 230  ARG230      0.1354
     30  NH2       64.4030   -0.7170    0.0430 N.pl3 230  ARG230      0.1354
     31  N         68.8050   -3.0300   -6.6940 N.am  231  ILE231     -0.1966
     32  CA        69.4540   -3.9330   -7.6640 C.3   231  ILE231      0.1727
     33  C         68.7410   -5.2790   -7.8190 C.2   231  ILE231      0.2616
     34  O         68.1390   -5.7970   -6.8700 O.2   231  ILE231     -0.2715
     35  CB        70.9310   -4.2200   -7.2810 C.3   231  ILE231      0.0290
     36  CG1       71.0170   -5.1560   -6.0480 C.3   231  ILE231      0.0022
     37  CG2       71.6540   -2.9120   -7.0320 C.3   231  ILE231      0.0023
     38  CD1       72.4370   -5.5910   -5.6030 C.3   231  ILE231      0.0001
     39  N         68.7880   -5.8240   -9.0290 N.am  232  GLY232     -0.1955
     40  CA        68.1610   -7.1080   -9.2850 C.3   232  GLY232      0.1869
     41  C         66.6480   -7.1240   -9.3540 C.2   232  GLY232      0.2309
     42  O         66.0380   -6.1580   -9.7950 O.2   232  GLY232     -0.2863
     43  N         61.2610   -6.1070  -17.5850 N.3   269  ARG269     -0.1245
     44  CA        61.7310   -4.8180  -18.0400 C.3   269  ARG269      0.1563
     45  C         62.2400   -4.8100  -19.4740 C.2   269  ARG269      0.2260
     46  O         61.9500   -3.8720  -20.2230 O.2   269  ARG269     -0.2867
     47  CB        62.7340   -4.1940  -17.0610 C.3   269  ARG269      0.0307
     48  CG        63.9240   -5.0620  -16.6660 C.3   269  ARG269      0.0489
     49  CD        64.5350   -4.4870  -15.4060 C.3   269  ARG269      0.2205
     50  NE        65.7610   -5.1460  -14.9670 N.pl3 269  ARG269     -0.0865
     51  CZ        65.8240   -6.2100  -14.1770 C.cat 269  ARG269      0.5346
     52  NH1       64.7260   -6.8140  -13.7360 N.pl3 269  ARG269      0.1354
     53  NH2       67.0020   -6.5900  -13.7120 N.pl3 269  ARG269      0.1354
     54  N         69.7710  -10.3540  -15.9960 N.3   289  GLU289     -0.1231
     55  CA        70.7660   -9.5820  -15.2610 C.3   289  GLU289      0.1699
     56  C         71.5530  -10.4060  -14.2650 C.2   289  GLU289      0.2592
     57  O         71.1220  -11.4850  -13.8380 O.2   289  GLU289     -0.2718
     58  CB        70.1540   -8.3400  -14.5890 C.3   289  GLU289      0.0402
     59  CG        71.1250   -7.5080  -13.7390 C.3   289  GLU289      0.1161
     60  CD        72.2140   -6.8120  -14.5420 C.2   289  GLU289      0.3649
     61  OE1       72.6940   -7.4070  -15.5360 O.co2 289  GLU289     -0.2457
     62  OE2       72.6050   -5.6770  -14.1730 O.co2 289  GLU289     -0.2457
     63  N         72.7500   -9.9170  -13.9620 N.am  290  ILE290     -0.1980
     64  CA        73.6180  -10.5810  -12.9920 C.3   290  ILE290      0.1595
     65  C         72.8980  -10.8020  -11.6620 C.2   290  ILE290      0.2287
     66  O         72.2170   -9.9010  -11.1410 O.2   290  ILE290     -0.2864
     67  CB        74.9450   -9.8080  -12.7530 C.3   290  ILE290      0.0276
     68  CG1       75.9130  -10.6540  -11.9200 C.3   290  ILE290      0.0022
     69  CG2       74.6770   -8.4910  -12.0480 C.3   290  ILE290      0.0022
     70  CD1       77.3280  -10.0210  -11.6770 C.3   290  ILE290      0.0001
     71  N         72.4470  -11.1840   -7.8870 N.3   292  ALA292     -0.1245
     72  CA        73.0880  -10.6090   -6.7140 C.3   292  ALA292      0.1562
     73  C         72.8890  -11.5170   -5.5140 C.2   292  ALA292      0.2260
     74  O         73.3700  -11.2290   -4.4330 O.2   292  ALA292     -0.2867
     75  CB        72.5520   -9.2350   -6.4320 C.3   292  ALA292      0.0290
     76  N         72.3510   -0.2830   -1.8330 N.3   300  TYR300     -0.1241
     77  CA        73.7440   -0.3270   -1.4380 C.3   300  TYR300      0.1605
     78  C         73.9230   -0.0800    0.0540 C.2   300  TYR300      0.2264
     79  O         74.8400   -0.6400    0.6680 O.2   300  TYR300     -0.2867
     80  CB        74.5150    0.6930   -2.2470 C.3   300  TYR300      0.0534
     81  CG        74.6840    0.2710   -3.6870 C.ar  300  TYR300     -0.0201
     82  CD1       75.3720   -0.9060   -4.0090 C.ar  300  TYR300     -0.0009
     83  CD2       74.2100    1.0590   -4.7280 C.ar  300  TYR300     -0.0009
     84  CE1       75.5870   -1.2830   -5.3310 C.ar  300  TYR300      0.0417
     85  CE2       74.4170    0.6960   -6.0570 C.ar  300  TYR300      0.0417
     86  CZ        75.1130   -0.4710   -6.3540 C.ar  300  TYR300      0.1957
     87  OH        75.3430   -0.7940   -7.6800 O.3   300  TYR300     -0.2866
     88  N         84.0100   -7.0130   -2.7210 N.3   314  ARG314     -0.1245
     89  CA        83.5170   -6.8170   -4.0960 C.3   314  ARG314      0.1563
     90  C         84.0890   -5.5320   -4.6930 C.2   314  ARG314      0.2260
     91  O         84.4420   -5.4550   -5.8740 O.2   314  ARG314     -0.2867
     92  CB        81.9750   -6.7930   -4.1560 C.3   314  ARG314      0.0307
     93  CG        81.3890   -6.9350   -5.5810 C.3   314  ARG314      0.0489
     94  CD        79.8970   -7.1420   -5.5390 C.3   314  ARG314      0.2205
     95  NE        79.2810   -7.1310   -6.8680 N.pl3 314  ARG314     -0.0865
     96  CZ        78.8990   -6.0390   -7.5350 C.cat 314  ARG314      0.5346
     97  NH1       79.0480   -4.8220   -7.0080 N.pl3 314  ARG314      0.1354
     98  NH2       78.3660   -6.1680   -8.7460 N.pl3 314  ARG314      0.1354
     99  N         85.9140   -6.2980   -8.2250 N.3   318  LYS318     -0.1245
    100  CA        84.5530   -6.3410   -8.7140 C.3   318  LYS318      0.1561
    101  C         84.3600   -7.3530   -9.8490 C.2   318  LYS318      0.2260
    102  O         83.2260   -7.6710  -10.2040 O.2   318  LYS318     -0.2867
    103  CB        84.1310   -4.9430   -9.1720 C.3   318  LYS318      0.0271
    104  CG        82.6220   -4.7380   -9.2530 C.3   318  LYS318      0.0035
    105  CD        82.3260   -3.3530   -9.7840 C.3   318  LYS318      0.0206
    106  CE        80.8940   -3.2610  -10.2740 C.3   318  LYS318      0.1093
    107  NZ        80.6260   -1.8930  -10.7390 N.3   318  LYS318     -0.1314
    108  N         78.4930  -11.9640   -4.4300 N.3   323  TYR323     -0.1241
    109  CA        77.6470  -11.8720   -3.2460 C.3   323  TYR323      0.1605
    110  C         77.2510  -13.3260   -3.0020 C.2   323  TYR323      0.2264
    111  O         77.2910  -14.1610   -3.9310 O.2   323  TYR323     -0.2867
    112  CB        76.3720  -11.0400   -3.5150 C.3   323  TYR323      0.0534
    113  CG        76.5760   -9.5660   -3.8010 C.ar  323  TYR323     -0.0201
    114  CD1       77.2690   -8.7410   -2.9120 C.ar  323  TYR323     -0.0009
    115  CD2       76.0560   -8.9930   -4.9600 C.ar  323  TYR323     -0.0009
    116  CE1       77.4410   -7.3720   -3.1840 C.ar  323  TYR323      0.0417
    117  CE2       76.2160   -7.6350   -5.2430 C.ar  323  TYR323      0.0417
    118  CZ        76.9030   -6.8290   -4.3590 C.ar  323  TYR323      0.1957
    119  OH        77.0280   -5.4870   -4.6600 O.3   323  TYR323     -0.2866
    120  N         81.2420  -10.9970  -11.9680 N.3   329  TYR329     -0.1241
    121  CA        81.2060  -10.5530  -13.3550 C.3   329  TYR329      0.1605
    122  C         81.9230  -11.6040  -14.1810 C.2   329  TYR329      0.2264
    123  O         81.6200  -11.7680  -15.3680 O.2   329  TYR329     -0.2867
    124  CB        81.8750   -9.1970  -13.5250 C.3   329  TYR329      0.0534
    125  CG        80.9210   -8.0270  -13.3840 C.ar  329  TYR329     -0.0201
    126  CD1       80.5110   -7.5730  -12.1220 C.ar  329  TYR329     -0.0009
    127  CD2       80.4470   -7.3560  -14.5070 C.ar  329  TYR329     -0.0009
    128  CE1       79.6610   -6.4900  -11.9960 C.ar  329  TYR329      0.0417
    129  CE2       79.6000   -6.2750  -14.3840 C.ar  329  TYR329      0.0417
    130  CZ        79.2070   -5.8480  -13.1310 C.ar  329  TYR329      0.1957
    131  OH        78.3160   -4.8070  -13.0250 O.3   329  TYR329     -0.2866
    132  N         70.5660   -5.4540  -19.6580 N.3   354  HIS354     -0.1226
    133  CA        70.7420   -4.8340  -18.3620 C.3   354  HIS354      0.1752
    134  C         72.1520   -4.2850  -18.2070 C.2   354  HIS354      0.2596
    135  O         73.0000   -4.4590  -19.0840 O.2   354  HIS354     -0.2718
    136  CB        70.4440   -5.8620  -17.2800 C.3   354  HIS354      0.0759
    137  CG        69.2260   -6.6940  -17.5610 C.ar  354  HIS354      0.0818
    138  ND1       67.9520   -6.3320  -17.1380 N.ar  354  HIS354     -0.2268
    139  CD2       69.0620   -7.8330  -18.2630 C.ar  354  HIS354      0.1154
    140  CE1       67.0820   -7.2060  -17.5770 C.ar  354  HIS354      0.1986
    141  NE2       67.7180   -8.1340  -18.2690 N.ar  354  HIS354     -0.2212
    142  N         72.4000   -3.6220  -17.0890 N.am  355  GLN355     -0.1965
    143  CA        73.6960   -2.9900  -16.8160 C.3   355  GLN355      0.1733
    144  C         74.9580   -3.8800  -16.7810 C.2   355  GLN355      0.2616
    145  O         75.9650   -3.5610  -17.4140 O.2   355  GLN355     -0.2715
    146  CB        73.5980   -2.1640  -15.5410 C.3   355  GLN355      0.0408
    147  CG        74.8500   -1.3770  -15.2500 C.3   355  GLN355      0.0908
    148  CD        74.6770   -0.3880  -14.1260 C.2   355  GLN355      0.2608
    149  OE1       74.7520    0.8100  -14.3650 O.2   355  GLN355     -0.2717
    150  NE2       74.4720   -0.8810  -12.8950 N.am  355  GLN355     -0.0878
    151  N         74.9370   -4.9330  -15.9670 N.am  356  ALA356     -0.1977
    152  CA        76.0690   -5.8560  -15.8730 C.3   356  ALA356      0.1597
    153  C         76.2530   -6.5830  -17.1990 C.2   356  ALA356      0.2287
    154  O         77.3310   -6.5440  -17.7740 O.2   356  ALA356     -0.2864
    155  CB        75.8660   -6.8590  -14.7600 C.3   356  ALA356      0.0319
    156  N         77.6930   -4.4180  -19.8340 N.3   359  ARG359     -0.1245
    157  CA        79.1040   -4.0910  -19.6160 C.3   359  ARG359      0.1563
    158  C         79.9500   -5.2220  -20.2100 C.2   359  ARG359      0.2260
    159  O         80.9460   -4.9970  -20.8980 O.2   359  ARG359     -0.2867
    160  CB        79.4070   -3.9720  -18.1180 C.3   359  ARG359      0.0307
    161  CG        78.8790   -2.7160  -17.4850 C.3   359  ARG359      0.0489
    162  CD        79.1290   -2.6870  -16.0140 C.3   359  ARG359      0.2205
    163  NE        78.9490   -1.3450  -15.4800 N.pl3 359  ARG359     -0.0865
    164  CZ        78.4590   -1.0910  -14.2710 C.cat 359  ARG359      0.5346
    165  NH1       78.1020   -2.0940  -13.4600 N.pl3 359  ARG359      0.1354
    166  NH2       78.2960    0.1660  -13.8820 N.pl3 359  ARG359      0.1354
    167  N         72.2560    4.7170  -12.2090 N.3   407  THR407     -0.1218
    168  CA        72.4400    3.4570  -11.4900 C.3   407  THR407      0.1862
    169  C         73.9440    3.1260  -11.4860 C.2   407  THR407      0.2287
    170  O         74.3550    2.0560  -11.0310 O.2   407  THR407     -0.2866
    171  CB        71.6900    2.3130  -12.1810 C.3   407  THR407      0.1770
    172  OG1       72.1340    2.2230  -13.5380 O.3   407  THR407     -0.2211
    173  CG2       70.1890    2.5690  -12.1450 C.3   407  THR407      0.0375
    174  N         77.5750    3.2170  -10.0920 N.3   409  ARG409     -0.1245
    175  CA        78.3480    3.4170   -8.8640 C.3   409  ARG409      0.1563
    176  C         79.8530    3.2630   -9.1220 C.2   409  ARG409      0.2260
    177  O         80.3330    2.1700   -9.4260 O.2   409  ARG409     -0.2867
    178  CB        77.8810    2.4320   -7.7780 C.3   409  ARG409      0.0307
    179  CG        78.7050    2.4890   -6.5010 C.3   409  ARG409      0.0489
    180  CD        78.1910    1.5270   -5.4560 C.3   409  ARG409      0.2205
    181  NE        79.0190    1.5270   -4.2420 N.pl3 409  ARG409     -0.0865
    182  CZ        80.0210    0.6800   -4.0160 C.cat 409  ARG409      0.5346
    183  NH1       80.3170   -0.2550   -4.9160 N.pl3 409  ARG409      0.1354
    184  NH2       80.7880    0.8060   -2.9350 N.pl3 409  ARG409      0.1354
@<TRIPOS>BOND
     1     1     2    1
     2     4     3    2
     3     3     2    1
     4     2     5    1
     5   159   158    2
     6    46    45    2
     7   158   157    1
     8     5     6    1
     9   156   157    1
    10     6     7    1
    11   132   133    1
    12   157   160    1
    13    45    44    1
    14   135   134    2
    15     7     8    1
    16   133   134    1
    17   133   136    1
    18   141   139   ar
    19   141   140   ar
    20   139   137   ar
    21   134   142   am
    22   160   161    1
    23    44    43    1
    24    44    47    1
    25   154   153    2
    26   140   138   ar
    27   137   136    1
    28   137   138   ar
    29   161   162    1
    30   145   144    2
    31     8     9    2
    32   153   152    1
    33   142   143    1
    34    47    48    1
    35   143   144    1
    36   143   146    1
    37   144   151   am
    38    48    49    1
    39    10     9    1
    40     9    11    1
    41   162   163    1
    42    54    55    1
    43   151   152    1
    44   152   155    1
    45   146   147    1
    46    61    60   ar
    47   163   164    2
    48    49    50    1
    49   123   122    2
    50    55    58    1
    51    55    56    1
    52   147   148    1
    53    50    51    2
    54    58    59    1
    55    60    62   ar
    56    60    59    1
    57   127   129   ar
    58   127   125   ar
    59   129   130   ar
    60   149   148    2
    61   164   166    1
    62   164   165    1
    63    56    63   am
    64    56    57    2
    65    18    17    2
    66   122   121    1
    67    51    52    1
    68    51    53    1
    69   148   150   am
    70    63    64    1
    71   172   171    1
    72   124   125    1
    73   124   121    1
    74   125   126   ar
    75   121   120    1
    76   130   131    1
    77   130   128   ar
    78    17    19   am
    79    17    16    1
    80    64    67    1
    81    64    65    1
    82    67    69    1
    83    67    68    1
    84    16    13    1
    85   167   168    1
    86   171   173    1
    87   171   168    1
    88   126   128   ar
    89    68    70    1
    90    65    66    2
    91   168   169    1
    92   169   170    2
    93    13    12    1
    94    13    14    1
    95   107   106    1
    96   106   105    1
    97   102   101    2
    98   174   175    1
    99    14    15    2
   100   101   100    1
   101    42    41    2
   102   105   104    1
   103   177   176    2
   104    41    40    1
   105    40    39    1
   106   104   103    1
   107   103   100    1
   108   176   175    1
   109    39    33   am
   110   175   178    1
   111    98    96    1
   112   100    99    1
   113    23    22    2
   114    71    72    1
   115    33    32    1
   116    33    34    2
   117   178   179    1
   118    87    86    1
   119    32    35    1
   120    32    31    1
   121    96    97    1
   122    96    95    2
   123    35    37    1
   124    35    36    1
   125    22    31   am
   126    22    21    1
   127    95    94    1
   128    72    75    1
   129    72    73    1
   130   179   180    1
   131    86    85   ar
   132    86    84   ar
   133    20    21    1
   134    85    83   ar
   135    36    38    1
   136    21    24    1
   137    91    90    2
   138    93    94    1
   139    93    92    1
   140    73    74    2
   141   180   181    1
   142    24    25    1
   143    84    82   ar
   144   117   115   ar
   145   117   118   ar
   146   115   113   ar
   147   183   182    1
   148    83    81   ar
   149    90    89    1
   150   119   118    1
   151   108   109    1
   152   118   116   ar
   153   181   182    2
   154    92    89    1
   155    89    88    1
   156    25    26    1
   157   182   184    1
   158    82    81   ar
   159   111   110    2
   160   113   112    1
   161   113   114   ar
   162    81    80    1
   163   112   109    1
   164    26    27    1
   165   109   110    1
   166   116   114   ar
   167    80    77    1
   168    27    28    2
   169    76    77    1
   170    77    78    1
   171    29    28    1
   172    28    30    1
   173    78    79    2
