@<TRIPOS>MOLECULE
tmp/2bifA04.pdb
 209 198 0 0 0
SMALL
GASTEIGER

@<TRIPOS>ATOM
      1  N         74.7660  -46.1410  -50.1420 N.3    11  PRO11      -0.2102
      2  CA        74.3050  -47.0780  -49.1220 C.3    11  PRO11       0.1504
      3  C         75.4810  -47.5150  -48.3000 C.2    11  PRO11       0.2576
      4  O         76.5890  -47.6770  -48.8340 O.2    11  PRO11      -0.2718
      5  CB        73.7900  -48.2410  -49.9490 C.3    11  PRO11       0.0282
      6  CG        73.2850  -47.5860  -51.1560 C.3    11  PRO11       0.0208
      7  CD        74.3590  -46.6020  -51.4770 C.3    11  PRO11       0.0893
      8  N         75.2190  -47.7670  -47.0160 N.am   12  ALA12      -0.1966
      9  CA        76.2450  -48.1780  -46.0670 C.3    12  ALA12       0.1728
     10  C         77.3030  -47.0980  -45.7920 C.2    12  ALA12       0.2616
     11  O         78.4580  -47.3920  -45.4960 O.2    12  ALA12      -0.2715
     12  CB        76.8850  -49.5060  -46.5070 C.3    12  ALA12       0.0334
     13  N         76.8790  -45.8410  -45.8580 N.am   13  ARG13      -0.1963
     14  CA        77.7700  -44.7310  -45.5980 C.3    13  ARG13       0.1729
     15  C         77.4980  -44.0670  -44.2480 C.2    13  ARG13       0.2617
     16  O         78.1870  -43.1360  -43.8540 O.2    13  ARG13      -0.2715
     17  CB        77.7050  -43.7230  -46.7490 C.3    13  ARG13       0.0348
     18  CG        78.8570  -43.8370  -47.7100 C.3    13  ARG13       0.0492
     19  CD        79.0390  -45.2670  -48.1750 C.3    13  ARG13       0.2205
     20  NE        80.1420  -45.4050  -49.1150 N.pl3  13  ARG13      -0.0865
     21  CZ        80.3130  -46.4500  -49.9170 C.cat  13  ARG13       0.5346
     22  NH1       79.4440  -47.4500  -49.9120 N.pl3  13  ARG13       0.1354
     23  NH2       81.3400  -46.4860  -50.7510 N.pl3  13  ARG13       0.1354
     24  N         76.5480  -44.6330  -43.5140 N.am   14  GLY14      -0.1940
     25  CA        76.1840  -44.1110  -42.2160 C.3    14  GLY14       0.2014
     26  C         75.1470  -43.0060  -42.2490 C.2    14  GLY14       0.2639
     27  O         74.9750  -42.2990  -41.2510 O.2    14  GLY14      -0.2714
     28  N         74.4460  -42.8490  -43.3690 N.am   15  LYS15      -0.1963
     29  CA        73.4440  -41.7850  -43.4570 C.3    15  LYS15       0.1728
     30  C         72.3930  -41.9500  -42.3690 C.2    15  LYS15       0.2617
     31  O         72.0000  -41.0010  -41.7130 O.2    15  LYS15      -0.2715
     32  CB        72.7390  -41.7550  -44.8150 C.3    15  LYS15       0.0311
     33  CG        73.5680  -41.3070  -46.0190 C.3    15  LYS15       0.0038
     34  CD        72.6880  -41.1530  -47.2910 C.3    15  LYS15       0.0206
     35  CE        71.9190  -42.4260  -47.6360 C.3    15  LYS15       0.1093
     36  NZ        72.8600  -43.5780  -47.8550 N.3    15  LYS15      -0.1314
     37  N         71.9250  -43.1730  -42.1930 N.am   16  THR16      -0.1937
     38  CA        70.8910  -43.4170  -41.2030 C.3    16  THR16       0.2028
     39  C         71.3880  -43.2470  -39.7850 C.2    16  THR16       0.2642
     40  O         70.7420  -42.6100  -38.9640 O.2    16  THR16      -0.2714
     41  CB        70.2320  -44.7640  -41.4160 C.3    16  THR16       0.1808
     42  OG1       69.7340  -44.8200  -42.7630 O.3    16  THR16      -0.2208
     43  CG2       69.0760  -44.9230  -40.4660 C.3    16  THR16       0.0379
     44  N         72.5750  -43.7700  -39.5280 N.am   17  TYR17      -0.1959
     45  CA        73.2020  -43.6520  -38.2260 C.3    17  TYR17       0.1771
     46  C         73.2430  -42.1840  -37.8230 C.2    17  TYR17       0.2619
     47  O         72.8110  -41.8340  -36.7260 O.2    17  TYR17      -0.2715
     48  CB        74.6240  -44.2160  -38.2960 C.3    17  TYR17       0.0574
     49  CG        75.4060  -44.0890  -37.0180 C.ar   17  TYR17      -0.0198
     50  CD1       75.2450  -45.0240  -35.9940 C.ar   17  TYR17      -0.0009
     51  CD2       76.3200  -43.0330  -36.8320 C.ar   17  TYR17      -0.0009
     52  CE1       75.9720  -44.9160  -34.8020 C.ar   17  TYR17       0.0417
     53  CE2       77.0570  -42.9120  -35.6430 C.ar   17  TYR17       0.0417
     54  CZ        76.8710  -43.8620  -34.6260 C.ar   17  TYR17       0.1957
     55  OH        77.5240  -43.7650  -33.4120 O.3    17  TYR17      -0.2866
     56  N         73.7410  -41.3470  -38.7380 N.am   18  ILE18      -0.1977
     57  CA        73.8640  -39.9040  -38.5550 C.3    18  ILE18       0.1596
     58  C         72.5030  -39.2590  -38.3740 C.2    18  ILE18       0.2287
     59  O         72.3330  -38.4000  -37.5130 O.2    18  ILE18      -0.2864
     60  CB        74.5930  -39.2690  -39.7650 C.3    18  ILE18       0.0276
     61  CG1       76.0560  -39.7080  -39.7480 C.3    18  ILE18       0.0022
     62  CG2       74.4530  -37.7440  -39.7630 C.3    18  ILE18       0.0022
     63  CD1       76.7700  -39.4430  -41.0270 C.3    18  ILE18       0.0001
     64  N         62.9220  -42.0210  -43.1460 N.3    37  ASN37      -0.1240
     65  CA        63.7410  -42.9950  -43.8650 C.3    37  ASN37       0.1653
     66  C         63.0130  -43.5420  -45.0880 C.2    37  ASN37       0.2266
     67  O         62.0430  -44.3110  -44.9540 O.2    37  ASN37      -0.2867
     68  CB        64.1200  -44.1310  -42.9300 C.3    37  ASN37       0.1155
     69  CG        65.1230  -45.0730  -43.5450 C.2    37  ASN37       0.2627
     70  OD1       64.8220  -45.7800  -44.4880 O.2    37  ASN37      -0.2716
     71  ND2       66.3160  -45.0960  -43.0020 N.am   37  ASN37      -0.0877
     72  N         60.0700  -50.4500  -47.7910 N.3    43  ARG43      -0.1245
     73  CA        59.7880  -51.7330  -47.1700 C.3    43  ARG43       0.1563
     74  C         58.3140  -51.8810  -46.8090 C.2    43  ARG43       0.2260
     75  O         57.6980  -52.9030  -47.1130 O.2    43  ARG43      -0.2867
     76  CB        60.6590  -51.9360  -45.9310 C.3    43  ARG43       0.0307
     77  CG        62.0870  -52.2620  -46.2580 C.3    43  ARG43       0.0489
     78  CD        62.8350  -52.6650  -45.0200 C.3    43  ARG43       0.2205
     79  NE        63.5120  -51.5390  -44.3890 N.pl3  43  ARG43      -0.0865
     80  CZ        64.6740  -51.0380  -44.7960 C.cat  43  ARG43       0.5346
     81  NH1       65.3020  -51.5510  -45.8460 N.pl3  43  ARG43       0.1354
     82  NH2       65.2430  -50.0500  -44.1220 N.pl3  43  ARG43       0.1354
     83  N         66.1500  -38.8600  -44.8540 N.3    92  ASP92      -0.1239
     84  CA        67.1640  -39.8960  -45.0480 C.3    92  ASP92       0.1674
     85  C         66.9820  -40.7350  -46.3530 C.2    92  ASP92       0.2266
     86  O         66.1550  -41.6640  -46.4100 O.2    92  ASP92      -0.2867
     87  CB        67.1530  -40.8100  -43.8250 C.3    92  ASP92       0.1410
     88  CG        68.2630  -41.8440  -43.8450 C.2    92  ASP92       0.3668
     89  OD1       69.1560  -41.7840  -44.7220 O.co2  92  ASP92      -0.2456
     90  OD2       68.2470  -42.7230  -42.9580 O.co2  92  ASP92      -0.2456
     91  N         69.4530  -41.6480  -50.3110 N.3    94  THR94      -0.1218
     92  CA        70.7590  -41.5130  -50.9550 C.3    94  THR94       0.1862
     93  C         70.9560  -40.1060  -51.5250 C.2    94  THR94       0.2287
     94  O         72.0070  -39.4810  -51.3220 O.2    94  THR94      -0.2866
     95  CB        70.9210  -42.5110  -52.1160 C.3    94  THR94       0.1770
     96  OG1       69.7070  -42.5210  -52.8680 O.3    94  THR94      -0.2211
     97  CG2       71.2200  -43.9140  -51.6180 C.3    94  THR94       0.0375
     98  N         77.6220  -37.9910  -46.3770 N.3   120  SER120     -0.1202
     99  CA        78.5590  -38.8990  -45.7220 C.3   120  SER120      0.2020
    100  C         79.3350  -39.6950  -46.7960 C.2   120  SER120      0.2619
    101  O         78.7430  -40.4720  -47.5490 O.2   120  SER120     -0.2717
    102  CB        77.8170  -39.8640  -44.8110 C.3   120  SER120      0.2103
    103  OG        78.7400  -40.6610  -44.1130 O.3   120  SER120     -0.2182
    104  N         80.6540  -39.5180  -46.8340 N.am  121  ILE121     -0.1965
    105  CA        81.5300  -40.1800  -47.7940 C.3   121  ILE121      0.1727
    106  C         82.4780  -41.2180  -47.1790 C.2   121  ILE121      0.2616
    107  O         83.1020  -40.9780  -46.1660 O.2   121  ILE121     -0.2715
    108  CB        82.3790  -39.1480  -48.5230 C.3   121  ILE121      0.0290
    109  CG1       81.4690  -38.1960  -49.3200 C.3   121  ILE121      0.0022
    110  CG2       83.4230  -39.8550  -49.3870 C.3   121  ILE121      0.0023
    111  CD1       82.1260  -36.9250  -49.8510 C.3   121  ILE121      0.0001
    112  N         82.5700  -42.3800  -47.7950 N.am  122  CYS122     -0.1968
    113  CA        83.4560  -43.4250  -47.3050 C.3   122  CYS122      0.1712
    114  C         84.0620  -44.1690  -48.4890 C.2   122  CYS122      0.2296
    115  O         83.3520  -44.8840  -49.1850 O.2   122  CYS122     -0.2864
    116  CB        82.6860  -44.3950  -46.4110 C.3   122  CYS122      0.0983
    117  SG        83.7480  -45.6050  -45.5700 S.3   122  CYS122     -0.0798
    118  N         86.0120  -50.4100  -44.1460 N.3   127  VAL127     -0.1245
    119  CA        84.9500  -49.6920  -43.4630 C.3   127  VAL127      0.1561
    120  C         83.6080  -50.0690  -44.0720 C.2   127  VAL127      0.2260
    121  O         82.6330  -50.3080  -43.3530 O.2   127  VAL127     -0.2867
    122  CB        85.1750  -48.1700  -43.5370 C.3   127  VAL127      0.0252
    123  CG1       83.9910  -47.4110  -42.9410 C.3   127  VAL127      0.0019
    124  CG2       86.4470  -47.8210  -42.7890 C.3   127  VAL127      0.0019
    125  N         80.7560  -52.1260  -42.4260 N.3   131  ASN131     -0.1240
    126  CA        79.3960  -51.5850  -42.3200 C.3   131  ASN131      0.1653
    127  C         78.3610  -52.5460  -42.8050 C.2   131  ASN131      0.2266
    128  O         77.2900  -52.6810  -42.2110 O.2   131  ASN131     -0.2867
    129  CB        79.2380  -50.2840  -43.0940 C.3   131  ASN131      0.1155
    130  CG        80.0850  -49.1810  -42.5510 C.2   131  ASN131      0.2627
    131  OD1       80.3510  -48.2050  -43.2570 O.2   131  ASN131     -0.2716
    132  ND2       80.5680  -49.3390  -41.3030 N.am  131  ASN131     -0.0877
    133  N         76.6730  -54.9440  -40.7460 N.3   134  GLN134     -0.1231
    134  CA        75.6690  -54.3570  -39.8490 C.3   134  GLN134      0.1698
    135  C         74.3480  -54.2730  -40.6560 C.2   134  GLN134      0.2592
    136  O         73.2480  -54.3940  -40.1120 O.2   134  GLN134     -0.2718
    137  CB        76.1060  -52.9520  -39.4470 C.3   134  GLN134      0.0381
    138  CG        77.4860  -52.8770  -38.8340 C.3   134  GLN134      0.0905
    139  CD        77.4150  -53.2180  -37.4030 C.2   134  GLN134      0.2608
    140  OE1       76.3220  -53.3350  -36.8760 O.2   134  GLN134     -0.2717
    141  NE2       78.5500  -53.3520  -36.7400 N.am  134  GLN134     -0.0878
    142  N         74.4770  -53.9570  -41.9420 N.am  135  VAL135     -0.1980
    143  CA        73.3550  -53.8900  -42.8850 C.3   135  VAL135      0.1595
    144  C         72.8020  -55.3170  -43.0810 C.2   135  VAL135      0.2287
    145  O         71.6030  -55.5670  -42.9540 O.2   135  VAL135     -0.2864
    146  CB        73.8570  -53.3420  -44.2690 C.3   135  VAL135      0.0276
    147  CG1       72.8650  -53.6080  -45.3670 C.3   135  VAL135      0.0022
    148  CG2       74.1230  -51.8530  -44.1740 C.3   135  VAL135      0.0022
    149  N         73.8320  -56.6050  -52.1220 N.3   154  PHE154     -0.1241
    150  CA        73.9730  -55.2610  -51.6140 C.3   154  PHE154      0.1605
    151  C         75.0410  -54.4920  -52.3950 C.2   154  PHE154      0.2264
    152  O         74.8260  -53.3150  -52.6930 O.2   154  PHE154     -0.2867
    153  CB        74.2610  -55.2510  -50.1060 C.3   154  PHE154      0.0534
    154  CG        74.1600  -53.8780  -49.4810 C.ar  154  PHE154     -0.0203
    155  CD1       72.9290  -53.2220  -49.3970 C.ar  154  PHE154     -0.0042
    156  CD2       75.2980  -53.2170  -49.0210 C.ar  154  PHE154     -0.0042
    157  CE1       72.8370  -51.9410  -48.8620 C.ar  154  PHE154     -0.0003
    158  CE2       75.2110  -51.9330  -48.4840 C.ar  154  PHE154     -0.0003
    159  CZ        73.9810  -51.3000  -48.4110 C.ar  154  PHE154     -0.0000
    160  N         73.7310  -53.2180  -55.4330 N.3   157  ARG157     -0.1245
    161  CA        72.7570  -52.1840  -55.1340 C.3   157  ARG157      0.1563
    162  C         73.4770  -50.8330  -55.0120 C.2   157  ARG157      0.2260
    163  O         72.9530  -49.8020  -55.3980 O.2   157  ARG157     -0.2867
    164  CB        72.0280  -52.5240  -53.8400 C.3   157  ARG157      0.0307
    165  CG        70.7850  -51.7080  -53.6200 C.3   157  ARG157      0.0489
    166  CD        70.3670  -51.6380  -52.1590 C.3   157  ARG157      0.2205
    167  NE        69.5140  -52.7240  -51.7010 N.pl3 157  ARG157     -0.0865
    168  CZ        68.7610  -52.6690  -50.6210 C.cat 157  ARG157      0.5346
    169  NH1       68.7410  -51.6100  -49.8710 N.pl3 157  ARG157      0.1354
    170  NH2       68.0200  -53.6760  -50.2750 N.pl3 157  ARG157      0.1354
    171  N         81.0320  -35.1160  -44.6940 N.3   181  ILE181     -0.1245
    172  CA        81.7950  -35.8060  -43.6600 C.3   181  ILE181      0.1561
    173  C         82.6580  -36.8760  -44.3390 C.2   181  ILE181      0.2260
    174  O         82.1510  -37.7100  -45.0690 O.2   181  ILE181     -0.2867
    175  CB        80.8300  -36.4980  -42.6420 C.3   181  ILE181      0.0252
    176  CG1       79.8800  -35.4640  -42.0260 C.3   181  ILE181      0.0019
    177  CG2       81.6170  -37.2600  -41.5670 C.3   181  ILE181      0.0019
    178  CD1       78.6350  -36.0760  -41.3980 C.3   181  ILE181      0.0001
    179  N         85.0150  -41.1290  -41.8290 N.3   184  VAL184     -0.1245
    180  CA        84.1740  -41.4290  -40.6760 C.3   184  VAL184      0.1561
    181  C         84.2450  -40.2860  -39.6600 C.2   184  VAL184      0.2260
    182  O         84.1980  -40.4990  -38.4480 O.2   184  VAL184     -0.2867
    183  CB        84.5450  -42.7960  -40.0120 C.3   184  VAL184      0.0252
    184  CG1       83.3330  -43.3660  -39.3330 C.3   184  VAL184      0.0019
    185  CG2       85.0680  -43.7980  -41.0470 C.3   184  VAL184      0.0019
    186  N         82.6140  -42.7100  -34.1570 N.3   210  VAL210     -0.1245
    187  CA        82.2500  -44.1020  -33.9430 C.3   210  VAL210      0.1561
    188  C         83.3960  -44.9430  -33.3770 C.2   210  VAL210      0.2260
    189  O         83.3660  -46.1750  -33.4480 O.2   210  VAL210     -0.2867
    190  CB        81.6780  -44.7470  -35.2190 C.3   210  VAL210      0.0252
    191  CG1       80.3180  -44.1720  -35.5140 C.3   210  VAL210      0.0019
    192  CG2       82.6180  -44.5380  -36.4110 C.3   210  VAL210      0.0019
    193  N         75.3690  -49.2970  -33.1860 N.3   390  ALA390     -0.1231
    194  CA        74.6060  -48.8000  -34.3210 C.3   390  ALA390      0.1694
    195  C         73.1450  -48.6050  -33.9400 C.2   390  ALA390      0.2592
    196  O         72.4810  -49.5540  -33.5180 O.2   390  ALA390     -0.2718
    197  CB        74.7080  -49.7650  -35.4690 C.3   390  ALA390      0.0304
    198  N         72.6710  -47.3640  -34.0650 N.am  391  TYR391     -0.1976
    199  CA        71.2800  -46.9530  -33.7590 C.3   391  TYR391      0.1639
    200  C         70.8880  -46.9710  -32.2760 C.2   391  TYR391      0.2290
    201  O         69.8890  -46.3520  -31.8830 O.2   391  TYR391     -0.2864
    202  CB        70.2360  -47.7630  -34.5540 C.3   391  TYR391      0.0560
    203  CG        70.5260  -47.9170  -36.0270 C.ar  391  TYR391     -0.0198
    204  CD1       71.1700  -46.9090  -36.7490 C.ar  391  TYR391     -0.0009
    205  CD2       70.2090  -49.1010  -36.6900 C.ar  391  TYR391     -0.0009
    206  CE1       71.4970  -47.0830  -38.1070 C.ar  391  TYR391      0.0417
    207  CE2       70.5300  -49.2860  -38.0450 C.ar  391  TYR391      0.0417
    208  CZ        71.1760  -48.2760  -38.7410 C.ar  391  TYR391      0.1957
    209  OH        71.5020  -48.4620  -40.0590 O.3   391  TYR391     -0.2866
@<TRIPOS>BOND
     1   160   161    1
     2   163   162    2
     3   161   162    1
     4   161   164    1
     5   164   165    1
     6   165   166    1
     7    96    95    1
     8   152   151    2
     9   151   150    1
    10   166   167    1
    11   149   150    1
    12    95    97    1
    13    95    92    1
    14   167   168    2
    15   150   153    1
    16    93    94    2
    17    93    92    1
    18     7     6    1
    19     7     1    1
    20     6     5    1
    21    92    91    1
    22    23    21    1
    23   168   170    1
    24   168   169    1
    25     1     2    1
    26   153   154    1
    27     5     2    1
    28    21    22    1
    29    21    20    2
    30   111   109    1
    31   154   155   ar
    32   154   156   ar
    33   155   157   ar
    34   110   108    1
    35   109   108    1
    36   115   114    2
    37     2     3    1
    38    20    19    1
    39   156   158   ar
    40   157   159   ar
    41     4     3    2
    42   108   105    1
    43   114   113    1
    44   158   159   ar
    45     3     8   am
    46    19    18    1
    47    36    35    1
    48   112   113    1
    49   112   106   am
    50   105   106    1
    51   105   104    1
    52    72    73    1
    53    18    17    1
    54    35    34    1
    55   101   100    2
    56   113   116    1
    57    34    33    1
    58   106   107    2
    59    73    74    1
    60    73    76    1
    61    75    74    2
    62     8     9    1
    63   104   100   am
    64   100    99    1
    65    17    14    1
    66    12     9    1
    67   116   117    1
    68    86    85    2
    69    98    99    1
    70    85    84    1
    71    77    76    1
    72    77    78    1
    73     9    10    1
    74    33    32    1
    75    13    10   am
    76    13    14    1
    77    81    80    1
    78    10    11    2
    79    99   102    1
    80    14    15    1
    81   147   146    1
    82    66    67    2
    83    66    65    1
    84   174   173    2
    85    84    83    1
    86    84    87    1
    87    78    79    1
    88    32    29    1
    89   102   103    1
    90    80    79    2
    91    80    82    1
    92    89    88   ar
    93   171   172    1
    94    70    69    2
    95   173   172    1
    96   146   148    1
    97   146   143    1
    98    15    16    2
    99    15    24   am
   100   118   119    1
   101   120   119    1
   102   120   121    2
   103    65    64    1
   104    65    68    1
   105    88    87    1
   106    88    90   ar
   107   172   175    1
   108    69    71   am
   109    69    68    1
   110   122   119    1
   111   122   123    1
   112   122   124    1
   113    24    25    1
   114    29    28    1
   115    29    30    1
   116    28    26   am
   117   131   130    2
   118   129   130    1
   119   129   126    1
   120   144   145    2
   121   144   143    1
   122   143   142    1
   123   127   126    1
   124   127   128    2
   125    42    41    1
   126   175   176    1
   127   175   177    1
   128   130   132   am
   129   125   126    1
   130    30    37   am
   131    30    31    2
   132    26    25    1
   133    26    27    2
   134    37    38    1
   135   176   178    1
   136   142   135   am
   137   179   180    1
   138    41    38    1
   139    41    43    1
   140    38    39    1
   141   185   183    1
   142    63    61    1
   143   133   134    1
   144   180   183    1
   145   180   181    1
   146   135   136    2
   147   135   134    1
   148   209   208    1
   149   183   184    1
   150   134   137    1
   151    39    44   am
   152    39    40    2
   153    60    62    1
   154    60    61    1
   155    60    57    1
   156   181   182    2
   157    44    45    1
   158   137   138    1
   159   138   139    1
   160   208   206   ar
   161   208   207   ar
   162    56    57    1
   163    56    46   am
   164    57    58    1
   165    58    59    2
   166    48    45    1
   167    48    49    1
   168    45    46    1
   169   206   204   ar
   170   207   205   ar
   171    46    47    2
   172   139   140    2
   173   139   141   am
   174    49    51   ar
   175    49    50   ar
   176    51    53   ar
   177   204   203   ar
   178   205   203   ar
   179   192   190    1
   180   203   202    1
   181    50    52   ar
   182    53    54   ar
   183   191   190    1
   184   197   194    1
   185   190   187    1
   186    52    54   ar
   187    54    55    1
   188   202   199    1
   189   194   195    1
   190   194   193    1
   191   186   187    1
   192   198   195   am
   193   198   199    1
   194   187   188    1
   195   195   196    2
   196   199   200    1
   197   189   188    2
   198   200   201    2
