@<TRIPOS>MOLECULE
tmp/2bihA00.pdb
 184 180 0 0 0
SMALL
GASTEIGER

@<TRIPOS>ATOM
      1  N         41.6380   -7.6540  114.6480 N.3    61  HIS61      -0.1226
      2  CA        42.5640   -6.5470  114.7950 C.3    61  HIS61       0.1752
      3  C         42.2030   -5.6020  113.6600 C.2    61  HIS61       0.2596
      4  O         41.6530   -6.0630  112.6710 O.2    61  HIS61      -0.2718
      5  CB        43.9990   -7.0410  114.7410 C.3    61  HIS61       0.0759
      6  CG        45.0350   -5.9900  114.9810 C.ar   61  HIS61       0.0818
      7  ND1       45.8870   -6.0120  116.0650 N.ar   61  HIS61      -0.2268
      8  CD2       45.4170   -4.9330  114.2310 C.ar   61  HIS61       0.1154
      9  CE1       46.7300   -5.0010  115.9830 C.ar   61  HIS61       0.1986
     10  NE2       46.4560   -4.3240  114.8840 N.ar   61  HIS61      -0.2212
     11  N         42.4250   -4.2940  113.8430 N.am   62  PHE62      -0.1962
     12  CA        42.1110   -3.2930  112.8180 C.3    62  PHE62       0.1771
     13  C         43.1860   -3.3620  111.7450 C.2    62  PHE62       0.2619
     14  O         44.3080   -3.7230  112.0300 O.2    62  PHE62      -0.2715
     15  CB        41.9820   -1.8490  113.3970 C.3    62  PHE62       0.0574
     16  CG        43.3190   -1.1620  113.7010 C.ar   62  PHE62      -0.0200
     17  CD1       43.9420   -0.4100  112.7690 C.ar   62  PHE62      -0.0042
     18  CD2       43.9100   -1.2510  114.9480 C.ar   62  PHE62      -0.0042
     19  CE1       45.1110    0.1670  113.0270 C.ar   62  PHE62      -0.0003
     20  CE2       45.1050   -0.6470  115.1940 C.ar   62  PHE62      -0.0003
     21  CZ        45.7000    0.0430  114.2270 C.ar   62  PHE62      -0.0000
     22  N         42.8320   -2.9850  110.5160 N.am   63  VAL63      -0.1963
     23  CA        43.7970   -2.9630  109.4210 C.3    63  VAL63       0.1727
     24  C         43.8710   -1.5590  108.8400 C.2    63  VAL63       0.2616
     25  O         42.8620   -0.8670  108.6980 O.2    63  VAL63      -0.2715
     26  CB        43.4550   -4.0180  108.3150 C.3    63  VAL63       0.0290
     27  CG1       44.5130   -4.0250  107.1600 C.3    63  VAL63       0.0023
     28  CG2       43.3560   -5.3980  108.9430 C.3    63  VAL63       0.0023
     29  N         45.0810   -1.1340  108.5310 N.am   64  ARG64      -0.1963
     30  CA        45.2380    0.0680  107.7950 C.3    64  ARG64       0.1729
     31  C         46.3060   -0.1720  106.7530 C.2    64  ARG64       0.2616
     32  O         47.4880   -0.2660  107.0750 O.2    64  ARG64      -0.2715
     33  CB        45.6180    1.2060  108.7290 C.3    64  ARG64       0.0348
     34  CG        45.3170    2.5950  108.1450 C.3    64  ARG64       0.0492
     35  CD        46.2430    2.9340  107.0380 C.3    64  ARG64       0.2205
     36  NE        46.0400    4.3030  106.6110 N.pl3  64  ARG64      -0.0865
     37  CZ        45.5260    4.7010  105.4530 C.cat  64  ARG64       0.5346
     38  NH1       45.1180    3.8500  104.5300 N.pl3  64  ARG64       0.1354
     39  NH2       45.4250    5.9790  105.2270 N.pl3  64  ARG64       0.1354
     40  N         45.8350   -0.2770  105.5130 N.am   65  ASN65      -0.1958
     41  CA        46.6220   -0.5050  104.3260 C.3    65  ASN65       0.1819
     42  C         46.3740    0.6900  103.4360 C.2    65  ASN65       0.2621
     43  O         45.2160    1.0030  103.0840 O.2    65  ASN65      -0.2715
     44  CB        46.1440   -1.7210  103.5310 C.3    65  ASN65       0.1195
     45  CG        46.2440   -3.0190  104.2900 C.2    65  ASN65       0.2630
     46  OD1       47.0470   -3.1630  105.2140 O.2    65  ASN65      -0.2716
     47  ND2       45.4360   -4.0020  103.8730 N.am   65  ASN65      -0.0877
     48  N         47.4610    1.3300  103.0330 N.am   66  HIS66      -0.1973
     49  CA        47.3970    2.5000  102.1950 C.3    66  HIS66       0.1656
     50  C         47.1360    2.0780  100.7840 C.2    66  HIS66       0.2291
     51  O         46.5610    2.8430  100.0060 O.2    66  HIS66      -0.2864
     52  CB        48.7170    3.2620  102.2620 C.3    66  HIS66       0.0771
     53  CG        48.8740    4.0910  103.4910 C.ar   66  HIS66       0.0820
     54  ND1       48.8120    5.4700  103.4640 N.ar   66  HIS66      -0.2267
     55  CD2       49.0810    3.7480  104.7830 C.ar   66  HIS66       0.1154
     56  CE1       48.9900    5.9410  104.6890 C.ar   66  HIS66       0.1986
     57  NE2       49.1640    4.9140  105.5080 N.ar   66  HIS66      -0.2212
     58  N         48.2000   -1.3270  119.6530 N.3   112  MET112     -0.1245
     59  CA        48.3790   -0.5500  118.4490 C.3   112  MET112      0.1570
     60  C         47.2140    0.3920  118.3070 C.2   112  MET112      0.2261
     61  O         46.0740    0.0770  118.6490 O.2   112  MET112     -0.2867
     62  CB        48.4040   -1.4350  117.2230 C.3   112  MET112      0.0387
     63  CG        49.7030   -2.1510  117.0280 C.3   112  MET112      0.0595
     64  SD        50.5790   -1.4710  115.6060 S.3   112  MET112     -0.1393
     65  CE        49.4460   -1.8020  114.2610 C.3   112  MET112      0.0692
     66  N         45.7310    3.4160  115.4430 N.3   114  CYS114     -0.1235
     67  CA        45.8140    4.2320  114.2950 C.3   114  CYS114      0.1677
     68  C         45.6550    5.7060  114.6300 C.2   114  CYS114      0.2270
     69  O         44.7920    6.0660  115.4150 O.2   114  CYS114     -0.2867
     70  CB        44.6990    3.8590  113.3420 C.3   114  CYS114      0.0956
     71  SG        44.9960    4.7220  111.8180 S.3   114  CYS114     -0.0801
     72  N         58.6690   -0.2400  103.6010 N.3   168  GLY168     -0.1225
     73  CA        57.9860   -1.4800  103.3510 C.3   168  GLY168      0.1811
     74  C         58.1030   -1.9300  101.9090 C.2   168  GLY168      0.2280
     75  O         58.6090   -1.2210  101.0250 O.2   168  GLY168     -0.2866
     76  N         55.3420   -2.8240  100.1090 N.3   170  ASP170     -0.1239
     77  CA        54.0930   -2.5480   99.3950 C.3   170  ASP170      0.1674
     78  C         54.2200   -1.3820   98.4200 C.2   170  ASP170      0.2266
     79  O         55.2100   -0.6320   98.4500 O.2   170  ASP170     -0.2867
     80  CB        52.9450   -2.3070  100.4000 C.3   170  ASP170      0.1410
     81  CG        53.1520   -1.0490  101.2860 C.2   170  ASP170      0.3668
     82  OD1       54.3070   -0.6250  101.6170 O.co2 170  ASP170     -0.2456
     83  OD2       52.1090   -0.4770  101.6390 O.co2 170  ASP170     -0.2456
     84  N         55.6100    2.6080  101.0170 N.3   177  TYR177     -0.1241
     85  CA        55.2600    3.2210  102.2610 C.3   177  TYR177      0.1605
     86  C         56.4890    3.2340  103.1620 C.2   177  TYR177      0.2264
     87  O         57.1330    2.2200  103.3470 O.2   177  TYR177     -0.2867
     88  CB        54.0740    2.5150  102.9200 C.3   177  TYR177      0.0534
     89  CG        53.6530    3.2040  104.2080 C.ar  177  TYR177     -0.0201
     90  CD1       52.7790    4.2870  104.2080 C.ar  177  TYR177     -0.0009
     91  CD2       54.1870    2.7980  105.4200 C.ar  177  TYR177     -0.0009
     92  CE1       52.4690    4.9280  105.3840 C.ar  177  TYR177      0.0417
     93  CE2       53.8450    3.4040  106.5900 C.ar  177  TYR177      0.0417
     94  CZ        53.0100    4.4610  106.5750 C.ar  177  TYR177      0.1957
     95  OH        52.7320    5.0060  107.7840 O.3   177  TYR177     -0.2866
     96  N         47.5730   -8.8680  106.2020 N.3   207  ASP207     -0.1225
     97  CA        47.1390   -7.4960  106.5870 C.3   207  ASP207      0.1805
     98  C         48.0160   -6.8500  107.6750 C.2   207  ASP207      0.2597
     99  O         48.0290   -5.6310  107.7990 O.2   207  ASP207     -0.2718
    100  CB        45.6730   -7.4770  107.0280 C.3   207  ASP207      0.1424
    101  CG        44.6880   -7.5010  105.8450 C.2   207  ASP207      0.3668
    102  OD1       45.0090   -6.9520  104.7500 O.co2 207  ASP207     -0.2456
    103  OD2       43.5680   -8.0370  106.0460 O.co2 207  ASP207     -0.2456
    104  N         48.7570   -7.6720  108.4300 N.am  208  HIS208     -0.1975
    105  CA        49.5320   -7.2100  109.5630 C.3   208  HIS208      0.1656
    106  C         51.0010   -7.2840  109.3020 C.2   208  HIS208      0.2291
    107  O         51.8090   -7.2150  110.2100 O.2   208  HIS208     -0.2864
    108  CB        49.1200   -7.9930  110.7880 C.3   208  HIS208      0.0771
    109  CG        47.6810   -7.8130  111.0990 C.ar  208  HIS208      0.0820
    110  ND1       47.0870   -6.5650  111.0990 N.ar  208  HIS208     -0.2267
    111  CD2       46.6960   -8.7060  111.3410 C.ar  208  HIS208      0.1154
    112  CE1       45.7990   -6.7050  111.3500 C.ar  208  HIS208      0.1986
    113  NE2       45.5360   -7.9920  111.5130 N.ar  208  HIS208     -0.2212
    114  N         57.3120   -7.1110  110.2480 N.3   213  ARG213     -0.1245
    115  CA        57.0090   -5.6970  110.4450 C.3   213  ARG213      0.1563
    116  C         57.6990   -5.1090  111.6490 C.2   213  ARG213      0.2260
    117  O         58.0500   -5.8160  112.5570 O.2   213  ARG213     -0.2867
    118  CB        55.5180   -5.4880  110.6810 C.3   213  ARG213      0.0307
    119  CG        55.1170   -5.6990  112.1240 C.3   213  ARG213      0.0489
    120  CD        53.6440   -5.5230  112.3160 C.3   213  ARG213      0.2205
    121  NE        53.2300   -4.1530  112.1060 N.pl3 213  ARG213     -0.0865
    122  CZ        51.9620   -3.7760  112.0600 C.cat 213  ARG213      0.5346
    123  NH1       50.9690   -4.6640  112.1880 N.pl3 213  ARG213      0.1354
    124  NH2       51.6750   -2.5060  111.8520 N.pl3 213  ARG213      0.1354
    125  N         50.1680    3.6730  114.7550 N.3   221  GLY221     -0.1210
    126  CA        50.3360    2.5730  113.8560 C.3   221  GLY221      0.1956
    127  C         51.1840    2.9900  112.6980 C.2   221  GLY221      0.2612
    128  O         52.0980    2.2500  112.2820 O.2   221  GLY221     -0.2717
    129  N         50.9480    4.2020  112.2140 N.am  222  GLY222     -0.1956
    130  CA        51.6480    4.7100  111.0270 C.3   222  GLY222      0.1869
    131  C         53.1400    4.5410  111.0020 C.2   222  GLY222      0.2309
    132  O         53.7110    4.5340  109.9520 O.2   222  GLY222     -0.2863
    133  N         54.6320    1.9960  112.6850 N.3   224  SER224     -0.1202
    134  CA        54.8470    0.5300  112.6640 C.3   224  SER224      0.2020
    135  C         54.7420   -0.0370  111.2510 C.2   224  SER224      0.2619
    136  O         53.6700   -0.4970  110.8080 O.2   224  SER224     -0.2717
    137  CB        53.8470   -0.1770  113.5690 C.3   224  SER224      0.2103
    138  OG        54.1020    0.1860  114.8920 O.3   224  SER224     -0.2182
    139  N         55.8560    0.0000  110.5390 N.am  225  VAL225     -0.1965
    140  CA        55.8460   -0.2880  109.1040 C.3   225  VAL225      0.1727
    141  C         55.7340   -1.7940  108.8600 C.2   225  VAL225      0.2616
    142  O         56.5220   -2.5750  109.4020 O.2   225  VAL225     -0.2715
    143  CB        57.1040    0.2480  108.4320 C.3   225  VAL225      0.0290
    144  CG1       57.2000   -0.2460  107.0090 C.3   225  VAL225      0.0023
    145  CG2       57.1680    1.8300  108.5600 C.3   225  VAL225      0.0023
    146  N         54.7420   -2.1760  108.0590 N.am  226  LYS226     -0.1963
    147  CA        54.4870   -3.5610  107.7030 C.3   226  LYS226      0.1728
    148  C         55.3190   -4.0140  106.4750 C.2   226  LYS226      0.2616
    149  O         55.8770   -3.1900  105.7690 O.2   226  LYS226     -0.2715
    150  CB        52.9920   -3.7170  107.4420 C.3   226  LYS226      0.0311
    151  CG        52.1030   -3.5510  108.7020 C.3   226  LYS226      0.0038
    152  CD        50.5890   -3.8310  108.4220 C.3   226  LYS226      0.0206
    153  CE        49.9030   -2.7310  107.5930 C.3   226  LYS226      0.1093
    154  NZ        48.4130   -2.7990  107.6210 N.3   226  LYS226     -0.1314
    155  N         55.4160   -5.3240  106.2470 N.am  227  TRP227     -0.1974
    156  CA        56.1330   -5.8650  105.0980 C.3   227  TRP227      0.1640
    157  C         57.4860   -5.2130  104.9600 C.2   227  TRP227      0.2290
    158  O         57.8290   -4.7110  103.8860 O.2   227  TRP227     -0.2864
    159  CB        55.3290   -5.6380  103.8150 C.3   227  TRP227      0.0576
    160  CG        53.8940   -5.9750  103.9970 C.ar  227  TRP227      0.0006
    161  CD1       53.3860   -7.1940  104.2750 C.ar  227  TRP227      0.0946
    162  CD2       52.7830   -5.0690  103.9680 C.ar  227  TRP227      0.0152
    163  NE1       52.0100   -7.1200  104.4130 N.ar  227  TRP227     -0.2442
    164  CE2       51.6190   -5.8230  104.2230 C.ar  227  TRP227      0.0810
    165  CE3       52.6610   -3.6910  103.7650 C.ar  227  TRP227      0.0012
    166  CZ2       50.3510   -5.2450  104.2800 C.ar  227  TRP227      0.0191
    167  CZ3       51.4090   -3.1200  103.8180 C.ar  227  TRP227      0.0001
    168  CH2       50.2700   -3.8910  104.0700 C.ar  227  TRP227      0.0015
    169  N         51.0450   12.2140  105.2190 N.3   246  ASP246     -0.1225
    170  CA        50.1080   11.5570  106.1120 C.3   246  ASP246      0.1805
    171  C         50.5950   11.6010  107.5950 C.2   246  ASP246      0.2597
    172  O         51.7430   11.9520  107.9100 O.2   246  ASP246     -0.2718
    173  CB        49.8740   10.1140  105.6220 C.3   246  ASP246      0.1424
    174  CG        48.5720    9.5110  106.1650 C.2   246  ASP246      0.3668
    175  OD1       47.8110   10.2610  106.7750 O.co2 246  ASP246     -0.2456
    176  OD2       48.3010    8.2970  106.0300 O.co2 246  ASP246     -0.2456
    177  N         49.7230   11.2310  108.5230 N.am  247  ASN247     -0.1974
    178  CA        50.1100   11.1420  109.9010 C.3   247  ASN247      0.1688
    179  C         50.7370   12.4410  110.4730 C.2   247  ASN247      0.2292
    180  O         51.8110   12.4550  111.0180 O.2   247  ASN247     -0.2864
    181  CB        50.9630    9.9010  110.0720 C.3   247  ASN247      0.1181
    182  CG        50.1740    8.6480  109.7920 C.2   247  ASN247      0.2629
    183  OD1       48.9920    8.5350  110.1700 O.2   247  ASN247     -0.2716
    184  ND2       50.7990    7.7080  109.1000 N.am  247  ASN247     -0.0877
@<TRIPOS>BOND
     1    78    79    2
     2    78    77    1
     3    77    76    1
     4    77    80    1
     5    51    50    2
     6    80    81    1
     7    50    49    1
     8    84    85    1
     9    75    74    2
    10    81    82   ar
    11    81    83   ar
    12    74    73    1
    13    49    52    1
    14    49    48    1
    15    85    88    1
    16    85    86    1
    17    52    53    1
    18    88    89    1
    19    48    42   am
    20    43    42    2
    21    86    87    2
    22    73    72    1
    23    42    41    1
    24    54    53   ar
    25    54    56   ar
    26    53    55   ar
    27    44    45    1
    28    44    41    1
    29   165   167   ar
    30   165   162   ar
    31   159   160    1
    32   159   156    1
    33   167   168   ar
    34    47    45   am
    35   158   157    2
    36   162   160   ar
    37   162   164   ar
    38   160   161   ar
    39   168   166   ar
    40    89    90   ar
    41    89    91   ar
    42    90    92   ar
    43   164   166   ar
    44   164   163   ar
    45   161   163   ar
    46    45    46    2
    47    41    40    1
    48    38    37    1
    49    56    57   ar
    50   102   101   ar
    51    55    57   ar
    52   157   156    1
    53   156   155    1
    54   169   170    1
    55    39    37    1
    56    92    94   ar
    57    91    93   ar
    58    37    36    2
    59    40    31   am
    60   173   170    1
    61   173   174    1
    62   149   148    2
    63   101   103   ar
    64   101   100    1
    65   176   174   ar
    66   170   171    1
    67   174   175   ar
    68    96    97    1
    69   155   148   am
    70   148   147    1
    71    94    93   ar
    72    94    95    1
    73    97   100    1
    74    97    98    1
    75    36    35    1
    76    31    32    2
    77    31    30    1
    78   144   143    1
    79    35    34    1
    80    27    26    1
    81   150   147    1
    82   150   151    1
    83   153   154    1
    84   153   152    1
    85   171   172    2
    86   171   177   am
    87    98    99    2
    88    98   104   am
    89   147   146    1
    90    30    29    1
    91    30    33    1
    92   146   141   am
    93    34    33    1
    94    26    28    1
    95    26    23    1
    96   152   151    1
    97   104   105    1
    98   143   145    1
    99   143   140    1
   100   177   178    1
   101    29    24   am
   102    25    24    2
   103    24    23    1
   104   141   140    1
   105   141   142    2
   106   184   182   am
   107   140   139    1
   108   106   105    1
   109   106   107    2
   110    23    22    1
   111   105   108    1
   112   182   181    1
   113   182   183    2
   114   178   181    1
   115   178   179    1
   116   132   131    2
   117   114   115    1
   118   115   118    1
   119   115   116    1
   120   179   180    2
   121    22    13   am
   122   139   135   am
   123   118   119    1
   124   108   109    1
   125   136   135    2
   126   131   130    1
   127   130   129    1
   128   109   110   ar
   129   109   111   ar
   130   110   112   ar
   131   135   134    1
   132   111   113   ar
   133   112   113   ar
   134   116   117    2
   135    13    14    2
   136    13    12    1
   137    71    70    1
   138   124   122    1
   139   122   121    2
   140   122   123    1
   141   121   120    1
   142   119   120    1
   143   129   127   am
   144   128   127    2
   145   134   133    1
   146   134   137    1
   147     4     3    2
   148   127   126    1
   149    17    19   ar
   150    17    16   ar
   151    12    15    1
   152    12    11    1
   153    19    21   ar
   154    70    67    1
   155    15    16    1
   156   137   138    1
   157     3    11   am
   158     3     2    1
   159    16    18   ar
   160   126   125    1
   161    21    20   ar
   162     8    10   ar
   163     8     6   ar
   164    65    64    1
   165    67    68    1
   166    67    66    1
   167    68    69    2
   168     1     2    1
   169     5     2    1
   170     5     6    1
   171    10     9   ar
   172    18    20   ar
   173     6     7   ar
   174    64    63    1
   175     9     7   ar
   176    63    62    1
   177    62    59    1
   178    60    59    1
   179    60    61    2
   180    59    58    1
