@<TRIPOS>MOLECULE
tmp/2bilB00.pdb
 169 156 0 0 0
SMALL
GASTEIGER

@<TRIPOS>ATOM
      1  N        -41.7690   -5.1310   -3.7420 N.3    12  LEU12      -0.1231
      2  CA       -42.2470   -3.7890   -4.1340 C.3    12  LEU12       0.1693
      3  C        -41.1700   -3.0230   -4.9060 C.2    12  LEU12       0.2592
      4  O        -41.4600   -2.2620   -5.8220 O.2    12  LEU12      -0.2718
      5  CB       -42.6510   -2.9740   -2.9000 C.3    12  LEU12       0.0284
      6  CG       -44.0310   -3.2970   -2.2880 C.3    12  LEU12       0.0019
      7  CD1      -44.2000   -2.7480   -0.8760 C.3    12  LEU12       0.0001
      8  CD2      -45.1510   -2.7630   -3.1630 C.3    12  LEU12       0.0001
      9  N        -39.9170   -3.2160   -4.5260 N.am   13  GLY13      -0.1957
     10  CA       -38.8040   -2.6340   -5.2810 C.3    13  GLY13       0.1869
     11  C        -37.5030   -2.7730   -4.5500 C.2    13  GLY13       0.2309
     12  O        -37.4400   -3.3140   -3.4280 O.2    13  GLY13      -0.2863
     13  N        -31.8220    1.6680   -1.0440 N.3    17  PHE17      -0.1241
     14  CA       -32.5010    1.4570    0.2370 C.3    17  PHE17       0.1605
     15  C        -32.7290   -0.0420    0.5500 C.2    17  PHE17       0.2264
     16  O        -33.5390   -0.3690    1.4060 O.2    17  PHE17      -0.2867
     17  CB       -33.8780    2.1320    0.1600 C.3    17  PHE17       0.0534
     18  CG       -34.6430    1.7710   -1.0750 C.ar   17  PHE17      -0.0203
     19  CD1      -34.5390    2.5590   -2.2320 C.ar   17  PHE17      -0.0042
     20  CD2      -35.4070    0.6170   -1.1180 C.ar   17  PHE17      -0.0042
     21  CE1      -35.2110    2.2170   -3.4060 C.ar   17  PHE17      -0.0003
     22  CE2      -36.1230    0.2710   -2.2930 C.ar   17  PHE17      -0.0003
     23  CZ       -36.0250    1.0660   -3.4280 C.ar   17  PHE17      -0.0000
     24  N        -37.4340   -4.1530   -0.6990 N.3    20  VAL20      -0.1245
     25  CA       -38.6060   -3.8810    0.0970 C.3    20  VAL20       0.1561
     26  C        -39.7560   -4.7280   -0.3980 C.2    20  VAL20       0.2260
     27  O        -40.0290   -4.7140   -1.6070 O.2    20  VAL20      -0.2867
     28  CB       -39.0170   -2.4120   -0.0100 C.3    20  VAL20       0.0252
     29  CG1      -40.3070   -2.1530    0.8050 C.3    20  VAL20       0.0019
     30  CG2      -37.8790   -1.4890    0.4330 C.3    20  VAL20       0.0019
     31  N        -44.8340   -3.1350    4.9820 N.3    33  ALA33      -0.1245
     32  CA       -43.7130   -3.2190    4.0510 C.3    33  ALA33       0.1562
     33  C        -42.4920   -3.6880    4.8180 C.2    33  ALA33       0.2260
     34  O        -42.1960   -3.2060    5.8910 O.2    33  ALA33      -0.2867
     35  CB       -43.4170   -1.8620    3.4100 C.3    33  ALA33       0.0290
     36  N        -38.4670   -4.3030    4.7750 N.3    35  LYS35      -0.1245
     37  CA       -37.3080   -3.7670    4.0960 C.3    35  LYS35       0.1561
     38  C        -36.0820   -4.4350    4.6230 C.2    35  LYS35       0.2260
     39  O        -35.8110   -4.4160    5.7990 O.2    35  LYS35      -0.2867
     40  CB       -37.2200   -2.2510    4.2930 C.3    35  LYS35       0.0271
     41  CG       -35.9370   -1.6100    3.7550 C.3    35  LYS35       0.0035
     42  CD       -35.0300   -1.2160    4.9170 C.3    35  LYS35       0.0206
     43  CE       -33.8770   -0.2880    4.5140 C.3    35  LYS35       0.1093
     44  NZ       -34.4060    0.9340    3.8480 N.3    35  LYS35      -0.1314
     45  N        -30.6570    4.4720   10.0400 N.3    57  GLU57      -0.1245
     46  CA       -32.0380    4.5850    9.6020 C.3    57  GLU57       0.1567
     47  C        -33.0390    4.1980   10.7230 C.2    57  GLU57       0.2260
     48  O        -34.1000    4.8390   10.9020 O.2    57  GLU57      -0.2867
     49  CB       -32.2160    3.7300    8.3390 C.3    57  GLU57       0.0388
     50  CG       -33.5500    3.8270    7.6050 C.3    57  GLU57       0.1160
     51  CD       -33.6240    2.8750    6.3930 C.2    57  GLU57       0.3649
     52  OE1      -32.5590    2.4680    5.8890 O.co2  57  GLU57      -0.2457
     53  OE2      -34.7150    2.5380    5.9160 O.co2  57  GLU57      -0.2457
     54  N        -35.9220    6.6020   12.2900 N.3    61  LEU61      -0.1245
     55  CA       -37.3500    6.2060   12.2320 C.3    61  LEU61       0.1561
     56  C        -37.9700    6.0760   13.6420 C.2    61  LEU61       0.2260
     57  O        -39.1530    6.4010   13.8520 O.2    61  LEU61      -0.2867
     58  CB       -37.5440    4.8800   11.4690 C.3    61  LEU61       0.0270
     59  CG       -37.3470    4.9350    9.9550 C.3    61  LEU61       0.0019
     60  CD1      -36.9740    3.5730    9.4180 C.3    61  LEU61       0.0001
     61  CD2      -38.5720    5.4340    9.2490 C.3    61  LEU61       0.0001
     62  N        -44.1550    7.6090    7.4210 N.3    72  ILE72      -0.1245
     63  CA       -44.3570    6.1700    7.4490 C.3    72  ILE72       0.1561
     64  C        -43.5650    5.6110    8.6240 C.2    72  ILE72       0.2260
     65  O        -42.3340    5.7320    8.6910 O.2    72  ILE72      -0.2867
     66  CB       -43.8740    5.5050    6.1180 C.3    72  ILE72       0.0252
     67  CG1      -44.9310    5.6480    5.0220 C.3    72  ILE72       0.0019
     68  CG2      -43.5230    4.0190    6.2820 C.3    72  ILE72       0.0019
     69  CD1      -46.2080    4.8630    5.2460 C.3    72  ILE72       0.0001
     70  N        -42.4600   -1.8180    8.3100 N.3    88  LEU88      -0.1231
     71  CA       -42.9450   -0.4480    8.1510 C.3    88  LEU88       0.1693
     72  C        -44.4030   -0.4210    7.7550 C.2    88  LEU88       0.2592
     73  O        -44.8680   -1.3280    7.0940 O.2    88  LEU88      -0.2718
     74  CB       -42.1410    0.2630    7.0590 C.3    88  LEU88       0.0284
     75  CG       -40.6900    0.5060    7.4530 C.3    88  LEU88       0.0019
     76  CD1      -39.8270    0.1540    6.3080 C.3    88  LEU88       0.0001
     77  CD2      -40.4940    1.9620    7.8590 C.3    88  LEU88       0.0001
     78  N        -45.1040    0.6410    8.1590 N.am   89  GLU89      -0.1966
     79  CA       -46.4500    0.9400    7.6660 C.3    89  GLU89       0.1733
     80  C        -46.4850    0.8500    6.1430 C.2    89  GLU89       0.2616
     81  O        -45.5190    1.1990    5.4710 O.2    89  GLU89      -0.2715
     82  CB       -46.9130    2.3560    8.0870 C.3    89  GLU89       0.0429
     83  CG       -47.7110    2.4360    9.3970 C.3    89  GLU89       0.1163
     84  CD       -48.1250    3.8700    9.7700 C.2    89  GLU89       0.3649
     85  OE1      -47.2970    4.8070    9.5740 O.co2  89  GLU89      -0.2457
     86  OE2      -49.2820    4.0710   10.2530 O.co2  89  GLU89      -0.2457
     87  N        -47.6020    0.3590    5.6190 N.am   90  ARG90      -0.1964
     88  CA       -47.9000    0.4460    4.1940 C.3    90  ARG90       0.1714
     89  C        -49.3610    0.8280    4.0320 C.2    90  ARG90       0.2458
     90  O        -50.2400    0.0920    4.4920 O.2    90  ARG90      -0.2730
     91  CB       -47.6530   -0.8790    3.4680 C.3    90  ARG90       0.0347
     92  CG       -48.2540   -0.9130    2.0730 C.3    90  ARG90       0.0492
     93  CD       -47.7260   -2.0540    1.2470 C.3    90  ARG90       0.2205
     94  NE       -48.1200   -3.3530    1.7910 N.pl3  90  ARG90      -0.0865
     95  CZ       -49.3070   -3.9020    1.6150 C.cat  90  ARG90       0.5346
     96  NH1      -50.2400   -3.2790    0.9160 N.pl3  90  ARG90       0.1354
     97  NH2      -49.5700   -5.0770    2.1530 N.pl3  90  ARG90       0.1354
     98  N        -49.6140    1.9870    3.4020 N.am   91  PRO91      -0.2727
     99  CA       -50.9560    2.3590    2.9650 C.3    91  PRO91       0.1402
    100  C        -51.4290    1.4980    1.8090 C.2    91  PRO91       0.2269
    101  O        -50.6520    0.8950    1.0920 O.2    91  PRO91      -0.2865
    102  CB       -50.8220    3.8280    2.5220 C.3    91  PRO91       0.0296
    103  CG       -49.3780    4.2650    2.8310 C.3    91  PRO91       0.0237
    104  CD       -48.5950    3.0240    3.1060 C.3    91  PRO91       0.0939
    105  N        -52.1590    2.8030   -2.4620 N.3    94  VAL94      -0.1245
    106  CA       -51.0840    3.7680   -2.4600 C.3    94  VAL94       0.1561
    107  C        -50.4610    3.9930   -3.8610 C.2    94  VAL94       0.2260
    108  O        -50.4330    3.0960   -4.7050 O.2    94  VAL94      -0.2867
    109  CB       -49.9530    3.2840   -1.4980 C.3    94  VAL94       0.0252
    110  CG1      -48.9740    2.3180   -2.2090 C.3    94  VAL94       0.0019
    111  CG2      -49.2070    4.4430   -0.9240 C.3    94  VAL94       0.0019
    112  N        -46.8360    6.3930   -5.3610 N.3    96  ASP96      -0.1239
    113  CA       -45.8560    7.3600   -4.9630 C.3    96  ASP96       0.1674
    114  C        -46.0730    8.6660   -5.7750 C.2    96  ASP96       0.2266
    115  O        -46.6570    8.6440   -6.8740 O.2    96  ASP96      -0.2867
    116  CB       -44.4050    6.7660   -4.9350 C.3    96  ASP96       0.1410
    117  CG       -43.7020    6.7290   -6.2900 C.2    96  ASP96       0.3668
    118  OD1      -42.6120    6.1160   -6.3290 O.co2  96  ASP96      -0.2456
    119  OD2      -44.1740    7.3060   -7.2970 O.co2  96  ASP96      -0.2456
    120  N        -38.0240   14.2900   -1.9370 N.3   137  LYS137     -0.1245
    121  CA       -38.2690   14.3410   -3.3720 C.3   137  LYS137      0.1561
    122  C        -39.5560   13.5740   -3.6700 C.2   137  LYS137      0.2260
    123  O        -39.9860   12.7840   -2.8500 O.2   137  LYS137     -0.2867
    124  CB       -37.0980   13.7100   -4.1450 C.3   137  LYS137      0.0271
    125  CG       -36.7090   12.3250   -3.7200 C.3   137  LYS137      0.0035
    126  CD       -35.8060   11.6800   -4.7720 C.3   137  LYS137      0.0206
    127  CE       -35.3130   10.2750   -4.3020 C.3   137  LYS137      0.1093
    128  NZ       -34.4770    9.5480   -5.3250 N.3   137  LYS137     -0.1314
    129  N        -40.2670   10.9740   -5.2140 N.3   139  GLU139     -0.1231
    130  CA       -40.1560    9.5250   -5.1100 C.3   139  GLU139      0.1699
    131  C        -40.1520    9.0600   -3.6750 C.2   139  GLU139      0.2592
    132  O        -40.3820    7.8880   -3.4300 O.2   139  GLU139     -0.2718
    133  CB       -38.8680    8.9960   -5.7770 C.3   139  GLU139      0.0402
    134  CG       -38.3690    9.6790   -7.0540 C.3   139  GLU139      0.1161
    135  CD       -37.1500    8.9650   -7.6120 C.2   139  GLU139      0.3649
    136  OE1      -36.1010    9.6370   -7.7160 O.co2 139  GLU139     -0.2457
    137  OE2      -37.2220    7.7180   -7.8980 O.co2 139  GLU139     -0.2457
    138  N        -39.8470    9.9530   -2.7250 N.am  140  ASN140     -0.1974
    139  CA       -39.9120    9.6000   -1.3130 C.3   140  ASN140      0.1688
    140  C        -41.1710   10.0680   -0.6040 C.2   140  ASN140      0.2292
    141  O        -41.1780   10.2220    0.6250 O.2   140  ASN140     -0.2864
    142  CB       -38.6380   10.0170   -0.6080 C.3   140  ASN140      0.1181
    143  CG       -37.4570    9.2500   -1.1260 C.2   140  ASN140      0.2629
    144  OD1      -37.6350    8.1710   -1.6960 O.2   140  ASN140     -0.2716
    145  ND2      -36.2540    9.7950   -0.9710 N.am  140  ASN140     -0.0877
    146  N        -45.3260    8.9950   -0.4980 N.3   142  LEU142     -0.1245
    147  CA       -46.4110    8.1320   -0.8480 C.3   142  LEU142      0.1561
    148  C        -47.7140    8.8320   -0.6030 C.2   142  LEU142      0.2260
    149  O        -47.8780    9.5100    0.4000 O.2   142  LEU142     -0.2867
    150  CB       -46.4230    6.9070    0.0370 C.3   142  LEU142      0.0270
    151  CG       -45.2200    5.9720    0.0600 C.3   142  LEU142      0.0019
    152  CD1      -45.6940    4.7210    0.7540 C.3   142  LEU142      0.0001
    153  CD2      -44.6920    5.6180   -1.3460 C.3   142  LEU142      0.0001
    154  N        -41.0010    8.6530    3.1230 N.3   153  ILE153     -0.1231
    155  CA       -40.2770    7.3940    3.2020 C.3   153  ILE153      0.1692
    156  C        -38.8010    7.5590    2.9470 C.2   153  ILE153      0.2592
    157  O        -38.3620    8.5900    2.4540 O.2   153  ILE153     -0.2718
    158  CB       -40.8240    6.3580    2.1930 C.3   153  ILE153      0.0266
    159  CG1      -40.7920    6.9310    0.7880 C.3   153  ILE153      0.0019
    160  CG2      -42.2550    5.9820    2.5790 C.3   153  ILE153      0.0020
    161  CD1      -41.1820    5.9620   -0.2880 C.3   153  ILE153      0.0001
    162  N        -38.0670    6.5020    3.2950 N.am  154  ASP154     -0.1974
    163  CA       -36.6500    6.3250    2.9910 C.3   154  ASP154      0.1709
    164  C        -35.8030    7.3050    3.7960 C.2   154  ASP154      0.2293
    165  O        -35.4290    8.3810    3.3030 O.2   154  ASP154     -0.2864
    166  CB       -36.3730    6.4530    1.4680 C.3   154  ASP154      0.1436
    167  CG       -34.9920    5.8830    1.0520 C.2   154  ASP154      0.3671
    168  OD1      -34.1700    5.4530    1.9330 O.co2 154  ASP154     -0.2456
    169  OD2      -34.7510    5.8340   -0.1850 O.co2 154  ASP154     -0.2456
@<TRIPOS>BOND
     1   137   135   ar
     2   136   135   ar
     3   135   134    1
     4   119   117   ar
     5   134   133    1
     6   115   114    2
     7   118   117   ar
     8   117   116    1
     9     4     3    2
    10   133   130    1
    11   114   113    1
    12   112   113    1
    13   128   127    1
    14    10    11    1
    15    10     9    1
    16   129   130    1
    17   130   131    1
    18   113   116    1
    19     3     9   am
    20     3     2    1
    21   126   127    1
    22   126   125    1
    23   108   107    2
    24    11    12    2
    25   124   125    1
    26   124   121    1
    27     2     1    1
    28     2     5    1
    29   107   106    1
    30   131   132    2
    31   131   138   am
    32   122   121    1
    33   122   123    2
    34    23    21   ar
    35    23    22   ar
    36    21    19   ar
    37   121   120    1
    38     8     6    1
    39     5     6    1
    40   138   139    1
    41   105   106    1
    42   106   109    1
    43    22    20   ar
    44     6     7    1
    45    19    18   ar
    46   110   109    1
    47   144   143    2
    48    27    26    2
    49   109   111    1
    50   153   151    1
    51   139   142    1
    52   139   140    1
    53   143   145   am
    54   143   142    1
    55    20    18   ar
    56    18    17    1
    57    13    14    1
    58   147   148    1
    59   147   146    1
    60   147   150    1
    61    24    25    1
    62   140   141    2
    63   148   149    2
    64    26    25    1
    65   161   159    1
    66   169   167   ar
    67    28    25    1
    68    28    30    1
    69    28    29    1
    70   150   151    1
    71   151   152    1
    72    17    14    1
    73    14    15    1
    74    15    16    2
    75   159   158    1
    76    96    95    1
    77   167   166    1
    78   167   168   ar
    79   101   100    2
    80    93    94    1
    81    93    92    1
    82   166   163    1
    83    95    94    2
    84    95    97    1
    85   100    99    1
    86    92    91    1
    87   158   160    1
    88   158   155    1
    89   157   156    2
    90   102   103    1
    91   102    99    1
    92   103   104    1
    93   156   155    1
    94   156   162   am
    95    99    98    1
    96   163   162    1
    97   163   164    1
    98   104    98    1
    99   154   155    1
   100   165   164    2
   101    98    89   am
   102    35    32    1
   103    91    88    1
   104    41    40    1
   105    41    42    1
   106    44    43    1
   107    89    88    1
   108    89    90    2
   109    32    33    1
   110    32    31    1
   111    37    40    1
   112    37    38    1
   113    37    36    1
   114    88    87    1
   115    43    42    1
   116    38    39    2
   117    33    34    2
   118    67    69    1
   119    67    66    1
   120    81    80    2
   121    87    80   am
   122    52    51   ar
   123    53    51   ar
   124    66    68    1
   125    66    63    1
   126    80    79    1
   127    76    75    1
   128    51    50    1
   129    74    75    1
   130    74    71    1
   131    73    72    2
   132    62    63    1
   133    63    64    1
   134    75    77    1
   135    50    49    1
   136    79    82    1
   137    79    78    1
   138    72    71    1
   139    72    78   am
   140    82    83    1
   141    71    70    1
   142    49    46    1
   143    64    65    2
   144    61    59    1
   145    83    84    1
   146    60    59    1
   147    85    84   ar
   148    46    45    1
   149    46    47    1
   150    84    86   ar
   151    59    58    1
   152    47    48    2
   153    58    55    1
   154    55    54    1
   155    55    56    1
   156    56    57    2
