@<TRIPOS>MOLECULE
tmp/2biyA00.pdb
 169 159 0 0 0
SMALL
GASTEIGER

@<TRIPOS>ATOM
      1  N         26.7140   80.9900   35.8290 N.3    17  LEU17      -0.1231
      2  CA        27.0030   81.6350   34.5690 C.3    17  LEU17       0.1693
      3  C         25.7380   82.0410   33.8550 C.2    17  LEU17       0.2593
      4  O         25.7340   83.0200   33.1380 O.2    17  LEU17      -0.2718
      5  CB        27.8150   80.7100   33.6540 C.3    17  LEU17       0.0284
      6  CG        29.2230   80.3910   34.1540 C.3    17  LEU17       0.0019
      7  CD1       29.8460   79.2770   33.3330 C.3    17  LEU17       0.0001
      8  CD2       30.0720   81.6360   34.0860 C.3    17  LEU17       0.0001
      9  N         24.6840   81.2640   34.0340 N.am   18  GLY18      -0.1942
     10  CA        23.3890   81.6260   33.5000 C.3    18  GLY18       0.2014
     11  C         22.3210   80.6910   34.0280 C.2    18  GLY18       0.2639
     12  O         22.6250   79.6340   34.5760 O.2    18  GLY18      -0.2714
     13  N         21.0740   81.1020   33.8780 N.am   19  GLU19      -0.1963
     14  CA        19.9320   80.3590   34.3920 C.3    19  GLU19       0.1733
     15  C         18.8580   80.2280   33.2940 C.2    19  GLU19       0.2617
     16  O         18.3000   81.2190   32.8800 O.2    19  GLU19      -0.2715
     17  CB        19.3570   81.0890   35.6250 C.3    19  GLU19       0.0429
     18  CG        19.8150   80.5030   36.9600 C.3    19  GLU19       0.1163
     19  CD        19.3860   81.3300   38.1660 C.2    19  GLU19       0.3649
     20  OE1       19.6610   82.5450   38.2040 O.co2  19  GLU19      -0.2457
     21  OE2       18.7540   80.7480   39.0900 O.co2  19  GLU19      -0.2457
     22  N         18.6000   79.0360   32.7840 N.am   20  GLY20      -0.1940
     23  CA        17.4620   78.8410   31.8900 C.3    20  GLY20       0.2014
     24  C         16.2100   78.3560   32.6060 C.2    20  GLY20       0.2640
     25  O         16.1960   78.1570   33.8270 O.2    20  GLY20      -0.2714
     26  N         15.1570   78.0970   31.8320 N.am   21  SER21      -0.1935
     27  CA        13.9270   77.5690   32.4270 C.3    21  SER21       0.2055
     28  C         14.0750   76.1390   33.0030 C.2    21  SER21       0.2643
     29  O         13.4190   75.8060   33.9710 O.2    21  SER21      -0.2714
     30  CB        12.7540   77.6830   31.4400 C.3    21  SER21       0.2130
     31  OG        13.1890   77.4510   30.1150 O.3    21  SER21      -0.2179
     32  N         14.9620   75.3110   32.4500 N.am   22  PHE22      -0.1959
     33  CA        15.1460   73.9270   32.9260 C.3    22  PHE22       0.1771
     34  C         16.5700   73.5430   33.3300 C.2    22  PHE22       0.2620
     35  O         16.8570   72.3650   33.5560 O.2    22  PHE22      -0.2715
     36  CB        14.6590   72.9510   31.8430 C.3    22  PHE22       0.0574
     37  CG        13.2250   73.1010   31.5550 C.ar   22  PHE22      -0.0200
     38  CD1       12.7940   73.9360   30.5290 C.ar   22  PHE22      -0.0042
     39  CD2       12.2920   72.4670   32.3480 C.ar   22  PHE22      -0.0042
     40  CE1       11.4390   74.1180   30.2790 C.ar   22  PHE22      -0.0003
     41  CE2       10.9170   72.6560   32.1070 C.ar   22  PHE22      -0.0003
     42  CZ        10.5020   73.4730   31.0800 C.ar   22  PHE22      -0.0000
     43  N         17.4470   74.5330   33.4200 N.am   23  SER23      -0.1950
     44  CA        18.8670   74.3060   33.6860 C.3    23  SER23       0.1924
     45  C         19.4790   75.5350   34.2940 C.2    23  SER23       0.2314
     46  O         18.9290   76.6520   34.1930 O.2    23  SER23      -0.2863
     47  CB        19.6200   73.9970   32.4010 C.3    23  SER23       0.2116
     48  OG        19.2710   74.9010   31.3720 O.3    23  SER23      -0.2180
     49  N         23.6180   76.9250   34.5340 N.3    25  VAL25      -0.1245
     50  CA        25.0150   76.7040   34.1670 C.3    25  VAL25       0.1561
     51  C         25.9190   77.3040   35.2330 C.2    25  VAL25       0.2260
     52  O         25.8180   78.4870   35.5600 O.2    25  VAL25      -0.2867
     53  CB        25.3170   77.3020   32.7930 C.3    25  VAL25       0.0252
     54  CG1       26.7450   76.9530   32.3850 C.3    25  VAL25       0.0019
     55  CG2       24.2880   76.7910   31.7830 C.3    25  VAL25       0.0019
     56  N         32.0720   74.7280   32.1890 N.3    38  ALA38      -0.1245
     57  CA        30.7510   75.2770   32.4450 C.3    38  ALA38       0.1562
     58  C         29.8710   74.0430   32.5600 C.2    38  ALA38       0.2260
     59  O         29.7120   73.3020   31.6120 O.2    38  ALA38      -0.2867
     60  CB        30.2930   76.1610   31.3330 C.3    38  ALA38       0.0290
     61  N         26.3200   72.3830   33.0970 N.3    40  LYS40      -0.1245
     62  CA        24.9110   72.6220   33.0110 C.3    40  LYS40       0.1561
     63  C         24.2160   71.5720   33.8490 C.2    40  LYS40       0.2260
     64  O         24.4600   70.3680   33.7020 O.2    40  LYS40      -0.2867
     65  CB        24.4700   72.5790   31.5690 C.3    40  LYS40       0.0271
     66  CG        22.9600   72.7480   31.3430 C.3    40  LYS40       0.0035
     67  CD        22.7170   72.8060   29.8520 C.3    40  LYS40       0.0206
     68  CE        21.3230   73.2150   29.4810 C.3    40  LYS40       0.1093
     69  NZ        21.3130   73.6570   28.0480 N.3    40  LYS40      -0.1314
     70  N         30.2490   74.7170   21.0850 N.3    72  VAL72      -0.1245
     71  CA        30.5020   74.3350   22.4730 C.3    72  VAL72       0.1561
     72  C         30.6610   72.8230   22.4990 C.2    72  VAL72       0.2260
     73  O         29.8720   72.0830   21.8860 O.2    72  VAL72      -0.2867
     74  CB        29.4050   74.8670   23.4690 C.3    72  VAL72       0.0252
     75  CG1       29.4900   74.2120   24.8480 C.3    72  VAL72       0.0019
     76  CG2       29.5340   76.4020   23.6300 C.3    72  VAL72       0.0019
     77  N         30.6610   71.2200   29.8680 N.3    88  LEU88      -0.1231
     78  CA        30.7620   71.9370   28.6030 C.3    88  LEU88       0.1693
     79  C         32.0070   72.8020   28.5940 C.2    88  LEU88       0.2593
     80  O         32.5230   73.1730   29.6470 O.2    88  LEU88      -0.2718
     81  CB        29.5400   72.8370   28.4170 C.3    88  LEU88       0.0284
     82  CG        28.1850   72.1230   28.5510 C.3    88  LEU88       0.0019
     83  CD1       27.1110   73.1510   28.5980 C.3    88  LEU88       0.0001
     84  CD2       27.9860   71.1830   27.4200 C.3    88  LEU88       0.0001
     85  N         32.5040   73.1210   27.4100 N.am   89  SER89      -0.1938
     86  CA        33.5540   74.0990   27.3520 C.3    89  SER89       0.2055
     87  C         33.0380   75.3970   27.9760 C.2    89  SER89       0.2643
     88  O         31.8530   75.7570   27.8640 O.2    89  SER89      -0.2714
     89  CB        34.1060   74.3490   25.9440 C.3    89  SER89       0.2130
     90  OG        33.2660   73.9870   24.9200 O.3    89  SER89      -0.2179
     91  N         33.9430   76.0630   28.6820 N.am   90  TYR90      -0.1959
     92  CA        33.6500   77.3300   29.2830 C.3    90  TYR90       0.1771
     93  C         34.0560   78.4370   28.2970 C.2    90  TYR90       0.2619
     94  O         35.2400   78.7120   28.0510 O.2    90  TYR90      -0.2715
     95  CB        34.3370   77.4320   30.6370 C.3    90  TYR90       0.0574
     96  CG        34.2960   78.7990   31.2770 C.ar   90  TYR90      -0.0198
     97  CD1       33.1230   79.5630   31.3000 C.ar   90  TYR90      -0.0009
     98  CD2       35.4350   79.3160   31.8820 C.ar   90  TYR90      -0.0009
     99  CE1       33.1020   80.8330   31.9190 C.ar   90  TYR90       0.0417
    100  CE2       35.4210   80.5790   32.5140 C.ar   90  TYR90       0.0417
    101  CZ        34.2540   81.3180   32.5310 C.ar   90  TYR90       0.1957
    102  OH        34.2540   82.5540   33.1220 O.3    90  TYR90      -0.2866
    103  N         33.0350   79.0680   27.7390 N.am   91  ALA91      -0.1977
    104  CA        33.1930   80.1670   26.8200 C.3    91  ALA91       0.1597
    105  C         33.3560   81.4360   27.6240 C.2    91  ALA91       0.2287
    106  O         32.3750   82.0850   27.9950 O.2    91  ALA91      -0.2864
    107  CB        31.9720   80.2530   25.8960 C.3    91  ALA91       0.0319
    108  N         31.4370   85.0220   26.9340 N.3    94  GLY94      -0.1210
    109  CA        29.9970   85.2330   26.9960 C.3    94  GLY94       0.1956
    110  C         29.3140   85.2940   25.6340 C.2    94  GLY94       0.2611
    111  O         29.8520   84.8060   24.6440 O.2    94  GLY94      -0.2717
    112  N         28.1220   85.8850   25.6090 N.am   95  GLU95      -0.1979
    113  CA        27.2730   85.9790   24.4210 C.3    95  GLU95       0.1602
    114  C         27.6970   87.0590   23.4200 C.2    95  GLU95       0.2287
    115  O         28.1080   88.1930   23.7830 O.2    95  GLU95      -0.2864
    116  CB        25.8190   86.2490   24.8340 C.3    95  GLU95       0.0415
    117  CG        25.2220   85.2170   25.7790 C.3    95  GLU95       0.1163
    118  CD        23.8160   85.5710   26.2570 C.2    95  GLU95       0.3649
    119  OE1       23.2840   86.6120   25.8370 O.co2  95  GLU95      -0.2457
    120  OE2       23.2290   84.7930   27.0450 O.co2  95  GLU95      -0.2457
    121  N         17.1050   77.5340   16.4410 N.3   134  ASP134     -0.1239
    122  CA        17.0220   78.6680   17.3480 C.3   134  ASP134      0.1674
    123  C         18.2950   79.5120   17.3530 C.2   134  ASP134      0.2266
    124  O         18.7630   79.9650   18.4020 O.2   134  ASP134     -0.2867
    125  CB        16.6680   78.1630   18.7530 C.3   134  ASP134      0.1410
    126  CG        16.1100   79.2610   19.6560 C.2   134  ASP134      0.3668
    127  OD1       15.7080   80.3700   19.1810 O.co2 134  ASP134     -0.2456
    128  OD2       16.0500   79.0750   20.8910 O.co2 134  ASP134     -0.2456
    129  N         20.6530   82.5320   17.2200 N.3   136  LYS136     -0.1245
    130  CA        20.5160   83.9200   17.6650 C.3   136  LYS136      0.1561
    131  C         21.7640   84.3470   18.4100 C.2   136  LYS136      0.2260
    132  O         22.5890   83.5010   18.8370 O.2   136  LYS136     -0.2867
    133  CB        19.2740   84.1210   18.5570 C.3   136  LYS136      0.0271
    134  CG        19.2610   83.2560   19.8100 C.3   136  LYS136      0.0035
    135  CD        17.9340   83.2390   20.5860 C.3   136  LYS136      0.0206
    136  CE        18.0630   82.3680   21.8110 C.3   136  LYS136      0.1093
    137  NZ        16.7990   81.8820   22.5050 N.3   136  LYS136     -0.1314
    138  N         22.2780   85.2940   21.3200 N.3   138  GLU138     -0.1245
    139  CA        22.3310   84.7810   22.6950 C.3   138  GLU138      0.1567
    140  C         22.9810   83.4100   22.7500 C.2   138  GLU138      0.2260
    141  O         23.5430   83.0270   23.7610 O.2   138  GLU138     -0.2867
    142  CB        20.9180   84.7500   23.2710 C.3   138  GLU138      0.0388
    143  CG        20.3410   86.1560   23.4000 C.3   138  GLU138      0.1160
    144  CD        19.2710   86.4900   22.3540 C.2   138  GLU138      0.3649
    145  OE1       19.5600   86.5270   21.1140 O.co2 138  GLU138     -0.2457
    146  OE2       18.1210   86.7350   22.7980 O.co2 138  GLU138     -0.2457
    147  N         28.1590   81.9860   21.5940 N.3   141  LEU141     -0.1245
    148  CA        29.1100   82.4190   22.6150 C.3   141  LEU141      0.1561
    149  C         30.4910   82.7200   22.0230 C.2   141  LEU141      0.2260
    150  O         30.7490   82.5270   20.8290 O.2   141  LEU141     -0.2867
    151  CB        29.1940   81.3880   23.7320 C.3   141  LEU141      0.0270
    152  CG        27.8600   80.8510   24.2470 C.3   141  LEU141      0.0019
    153  CD1       28.0940   79.8630   25.3850 C.3   141  LEU141      0.0001
    154  CD2       26.9720   81.9900   24.7270 C.3   141  LEU141      0.0001
    155  N         25.9570   77.2120   20.7310 N.3   151  THR151     -0.1203
    156  CA        25.3920   76.2800   21.6920 C.3   151  THR151      0.1994
    157  C         23.8630   76.2520   21.6050 C.2   151  THR151      0.2617
    158  O         23.3150   76.8180   20.6590 O.2   151  THR151     -0.2717
    159  CB        25.8680   76.6420   23.0670 C.3   151  THR151      0.1784
    160  OG1       25.5460   75.5850   23.9750 O.3   151  THR151     -0.2211
    161  CG2       25.1730   77.9250   23.5800 C.3   151  THR151      0.0376
    162  N         23.2150   75.4880   22.5070 N.am  152  ASP152     -0.1973
    163  CA        21.7570   75.4650   22.7030 C.3   152  ASP152      0.1709
    164  C         21.0560   74.5410   21.6950 C.2   152  ASP152      0.2293
    165  O         20.3270   75.0010   20.8200 O.2   152  ASP152     -0.2864
    166  CB        21.2040   76.8990   22.6540 C.3   152  ASP152      0.1436
    167  CG        19.7530   77.0040   23.1260 C.2   152  ASP152      0.3671
    168  OD1       19.2950   76.0720   23.7900 O.co2 152  ASP152     -0.2456
    169  OD2       19.0140   78.0050   22.8640 O.co2 152  ASP152     -0.2456
@<TRIPOS>BOND
     1   121   122    1
     2   129   130    1
     3   122   123    1
     4   122   125    1
     5   123   124    2
     6   130   131    1
     7   130   133    1
     8   131   132    2
     9   133   134    1
    10   125   126    1
    11   127   126   ar
    12   126   128   ar
    13   134   135    1
    14   135   136    1
    15   158   157    2
    16   155   156    1
    17   165   164    2
    18   150   149    2
    19    70    71    1
    20   145   144   ar
    21   138   139    1
    22   147   148    1
    23   157   156    1
    24   157   162   am
    25   156   159    1
    26   164   163    1
    27   136   137    1
    28    73    72    2
    29   149   148    1
    30   144   146   ar
    31   144   143    1
    32    71    72    1
    33    71    74    1
    34   162   163    1
    35   148   151    1
    36   166   163    1
    37   166   167    1
    38   139   140    1
    39   139   142    1
    40   140   141    2
    41   169   167   ar
    42   159   161    1
    43   159   160    1
    44   167   168   ar
    45   142   143    1
    46   114   115    2
    47   114   113    1
    48    74    76    1
    49    74    75    1
    50   151   152    1
    51   152   154    1
    52   152   153    1
    53   113   116    1
    54   113   112    1
    55   111   110    2
    56   116   117    1
    57    90    89    1
    58   112   110   am
    59   110   109    1
    60   117   118    1
    61   119   118   ar
    62   107   104    1
    63    89    86    1
    64   118   120   ar
    65   104   105    1
    66   104   103    1
    67   108   109    1
    68    86    85    1
    69    86    87    1
    70    85    79   am
    71    84    82    1
    72   105   106    2
    73   103    93   am
    74    88    87    2
    75    87    91   am
    76    69    68    1
    77    94    93    2
    78    93    92    1
    79    81    82    1
    80    81    78    1
    81    82    83    1
    82    79    78    1
    83    79    80    2
    84    78    77    1
    85    91    92    1
    86    92    95    1
    87    68    67    1
    88    67    66    1
    89    31    30    1
    90    40    38   ar
    91    40    42   ar
    92    38    37   ar
    93    95    96    1
    94    42    41   ar
    95    96    97   ar
    96    96    98   ar
    97    97    99   ar
    98    60    57    1
    99    66    65    1
   100    48    47    1
   101    30    27    1
   102    37    36    1
   103    37    39   ar
   104    65    62    1
   105    59    58    2
   106    55    53    1
   107    26    27    1
   108    26    24   am
   109    36    33    1
   110    98   100   ar
   111    23    24    1
   112    23    22    1
   113    99   101   ar
   114    41    39   ar
   115    56    57    1
   116    54    53    1
   117    47    44    1
   118    27    28    1
   119    57    58    1
   120    32    33    1
   121    32    28   am
   122   100   101   ar
   123   101   102    1
   124    24    25    2
   125    22    15   am
   126    53    50    1
   127    16    15    2
   128    33    34    1
   129    28    29    2
   130    62    61    1
   131    62    63    1
   132     4     3    2
   133    15    14    1
   134    34    43   am
   135    34    35    2
   136     7     6    1
   137    43    44    1
   138    10    11    1
   139    10     9    1
   140     5     6    1
   141     5     2    1
   142    44    45    1
   143    64    63    2
   144     3     9   am
   145     3     2    1
   146    13    11   am
   147    13    14    1
   148    11    12    2
   149     8     6    1
   150    50    49    1
   151    50    51    1
   152    46    45    2
   153    14    17    1
   154     2     1    1
   155    51    52    2
   156    17    18    1
   157    18    19    1
   158    19    20   ar
   159    19    21   ar
