@<TRIPOS>MOLECULE
tmp/2bj0D00.pdb
 96 94 0 0 0
SMALL
GASTEIGER

@<TRIPOS>ATOM
      1  N         58.2950   75.9310   75.5530 N.3    51  TRP51      -0.1241
      2  CA        58.6360   76.1940   74.1670 C.3    51  TRP51       0.1605
      3  C         59.1510   74.9050   73.5550 C.2    51  TRP51       0.2264
      4  O         60.0700   74.2710   74.1120 O.2    51  TRP51      -0.2867
      5  CB        59.7330   77.2460   74.0430 C.3    51  TRP51       0.0550
      6  CG        59.3850   78.6140   74.4840 C.ar   51  TRP51       0.0003
      7  CD1       58.2010   79.0440   75.0650 C.ar   51  TRP51       0.0946
      8  CD2       60.2290   79.7710   74.4130 C.ar   51  TRP51       0.0152
      9  NE1       58.2720   80.3900   75.3390 N.ar   51  TRP51      -0.2442
     10  CE2       59.5010   80.8610   74.9410 C.ar   51  TRP51       0.0810
     11  CE3       61.5410   79.9950   73.9500 C.ar   51  TRP51       0.0012
     12  CZ2       60.0240   82.1470   75.0100 C.ar   51  TRP51       0.0191
     13  CZ3       62.0520   81.2650   74.0130 C.ar   51  TRP51       0.0001
     14  CH2       61.3060   82.3330   74.5480 C.ar   51  TRP51       0.0015
     15  N         61.0130   73.5910   70.3060 N.3    53  GLN53      -0.1245
     16  CA        61.8080   74.0610   69.1740 C.3    53  GLN53       0.1566
     17  C         61.9400   72.9570   68.1570 C.2    53  GLN53       0.2260
     18  O         62.7170   72.0170   68.3560 O.2    53  GLN53      -0.2867
     19  CB        63.1920   74.4910   69.6560 C.3    53  GLN53       0.0367
     20  CG        63.1540   75.6870   70.6360 C.3    53  GLN53       0.0905
     21  CD        64.3950   75.8000   71.5400 C.2    53  GLN53       0.2608
     22  OE1       65.0580   74.8000   71.8370 O.2    53  GLN53      -0.2717
     23  NE2       64.6820   77.0130   72.0030 N.am   53  GLN53      -0.0878
     24  N         66.3070   84.5880   55.1250 N.3    72  GLN72      -0.1245
     25  CA        65.3170   83.6520   55.6080 C.3    72  GLN72       0.1566
     26  C         63.9380   84.2960   55.4240 C.2    72  GLN72       0.2260
     27  O         63.8570   85.4970   55.2050 O.2    72  GLN72      -0.2867
     28  CB        65.5840   83.2640   57.0710 C.3    72  GLN72       0.0367
     29  CG        65.8340   84.4370   58.0380 C.3    72  GLN72       0.0905
     30  CD        65.8850   83.9910   59.5130 C.2    72  GLN72       0.2608
     31  OE1       65.2520   84.6070   60.3930 O.2    72  GLN72      -0.2717
     32  NE2       66.6240   82.9170   59.7820 N.am   72  GLN72      -0.0878
     33  N         53.7600   80.9000   63.0590 N.3   101  ARG101     -0.1231
     34  CA        54.5930   81.1140   61.8830 C.3   101  ARG101      0.1694
     35  C         55.8780   80.3090   61.9530 C.2   101  ARG101      0.2592
     36  O         56.4100   80.0780   63.0320 O.2   101  ARG101     -0.2718
     37  CB        55.0110   82.5700   61.8160 C.3   101  ARG101      0.0321
     38  CG        53.9720   83.5010   61.2850 C.3   101  ARG101      0.0489
     39  CD        54.4940   84.8560   60.9210 C.3   101  ARG101      0.2205
     40  NE        53.5490   85.3970   59.9780 N.pl3 101  ARG101     -0.0865
     41  CZ        53.7910   85.7390   58.7380 C.cat 101  ARG101      0.5346
     42  NH1       55.0060   85.7000   58.2110 N.pl3 101  ARG101      0.1354
     43  NH2       52.7830   86.1940   58.0310 N.pl3 101  ARG101      0.1354
     44  N         56.3730   79.9030   60.7890 N.am  102  VAL102     -0.1966
     45  CA        57.6480   79.1620   60.6680 C.3   102  VAL102      0.1727
     46  C         58.6260   80.0590   59.9500 C.2   102  VAL102      0.2616
     47  O         58.1980   81.0320   59.3490 O.2   102  VAL102     -0.2715
     48  CB        57.5050   77.8690   59.8340 C.3   102  VAL102      0.0290
     49  CG1       56.5260   76.9220   60.4620 C.3   102  VAL102      0.0023
     50  CG2       57.0660   78.1790   58.4100 C.3   102  VAL102      0.0023
     51  N         59.9240   79.7250   60.0180 N.am  103  VAL103     -0.1977
     52  CA        61.0020   80.4130   59.2870 C.3   103  VAL103      0.1596
     53  C         61.7400   79.4050   58.4170 C.2   103  VAL103      0.2287
     54  O         62.1870   78.3730   58.9130 O.2   103  VAL103     -0.2864
     55  CB        61.9790   81.0840   60.2400 C.3   103  VAL103      0.0276
     56  CG1       63.1650   81.6830   59.5070 C.3   103  VAL103      0.0022
     57  CG2       61.2700   82.2030   60.9880 C.3   103  VAL103      0.0022
     58  N         62.2830   76.1600   60.7090 N.3   111  ILE111     -0.1231
     59  CA        62.2420   76.2740   62.1750 C.3   111  ILE111      0.1692
     60  C         60.8700   76.7460   62.6080 C.2   111  ILE111      0.2592
     61  O         60.3560   77.7430   62.0940 O.2   111  ILE111     -0.2718
     62  CB        63.2500   77.3060   62.6960 C.3   111  ILE111      0.0266
     63  CG1       64.6050   77.1170   62.0190 C.3   111  ILE111      0.0019
     64  CG2       63.4170   77.1670   64.2130 C.3   111  ILE111      0.0020
     65  CD1       65.6120   76.2550   62.7940 C.3   111  ILE111      0.0001
     66  N         60.3270   76.0450   63.5900 N.am  112  TYR112     -0.1962
     67  CA        59.0190   76.3220   64.1170 C.3   112  TYR112      0.1771
     68  C         59.1390   76.2490   65.6450 C.2   112  TYR112      0.2619
     69  O         59.4420   75.1770   66.1700 O.2   112  TYR112     -0.2715
     70  CB        58.0710   75.2320   63.5920 C.3   112  TYR112      0.0574
     71  CG        56.6470   75.3560   64.0790 C.ar  112  TYR112     -0.0198
     72  CD1       56.0540   76.5980   64.1960 C.ar  112  TYR112     -0.0009
     73  CD2       55.8860   74.2310   64.3820 C.ar  112  TYR112     -0.0009
     74  CE1       54.7600   76.7320   64.6360 C.ar  112  TYR112      0.0417
     75  CE2       54.5850   74.3640   64.8160 C.ar  112  TYR112      0.0417
     76  CZ        54.0280   75.6200   64.9250 C.ar  112  TYR112      0.1957
     77  OH        52.7290   75.8140   65.3710 O.3   112  TYR112     -0.2866
     78  N         58.9040   77.3520   66.3610 N.am  113  VAL113     -0.1977
     79  CA        58.9740   77.3430   67.8500 C.3   113  VAL113      0.1596
     80  C         57.6520   77.7490   68.5370 C.2   113  VAL113      0.2287
     81  O         57.4820   78.8960   68.8970 O.2   113  VAL113     -0.2864
     82  CB        60.1240   78.2680   68.3870 C.3   113  VAL113      0.0276
     83  CG1       60.3320   78.0660   69.9030 C.3   113  VAL113      0.0022
     84  CG2       61.4400   77.9720   67.6460 C.3   113  VAL113      0.0022
     85  N         65.8730   78.6470   80.6360 N.3   164  TYR164     -0.1241
     86  CA        65.2130   79.9330   80.8240 C.3   164  TYR164      0.1605
     87  C         64.0830   79.8900   81.8600 C.2   164  TYR164      0.2264
     88  O         63.2810   80.8170   81.9250 O.2   164  TYR164     -0.2867
     89  CB        64.6570   80.4660   79.4980 C.3   164  TYR164      0.0534
     90  CG        65.5790   80.3760   78.2940 C.ar  164  TYR164     -0.0201
     91  CD1       66.8970   80.8250   78.3530 C.ar  164  TYR164     -0.0009
     92  CD2       65.1090   79.8810   77.0790 C.ar  164  TYR164     -0.0009
     93  CE1       67.7290   80.7560   77.2370 C.ar  164  TYR164      0.0417
     94  CE2       65.9140   79.8180   75.9700 C.ar  164  TYR164      0.0417
     95  CZ        67.2320   80.2430   76.0540 C.ar  164  TYR164      0.1957
     96  OH        68.0470   80.1560   74.9310 O.3   164  TYR164     -0.2866
@<TRIPOS>BOND
     1    24    25    1
     2    27    26    2
     3    26    25    1
     4    25    28    1
     5    28    29    1
     6    43    41    1
     7    29    30    1
     8    42    41    1
     9    50    48    1
    10    53    54    2
    11    53    52    1
    12    41    40    2
    13    52    51    1
    14    52    55    1
    15    47    46    2
    16    56    55    1
    17    30    32   am
    18    30    31    2
    19    48    49    1
    20    48    45    1
    21    46    51   am
    22    46    45    1
    23    40    39    1
    24    55    57    1
    25    45    44    1
    26    58    59    1
    27    44    35   am
    28    39    38    1
    29    38    37    1
    30    37    34    1
    31    34    35    1
    32    34    33    1
    33    35    36    2
    34    63    62    1
    35    63    65    1
    36    61    60    2
    37    59    60    1
    38    59    62    1
    39    60    66   am
    40    62    64    1
    41    66    67    1
    42    70    71    1
    43    70    67    1
    44    71    72   ar
    45    71    73   ar
    46    67    68    1
    47    72    74   ar
    48    73    75   ar
    49    74    76   ar
    50    75    76   ar
    51    76    77    1
    52    68    69    2
    53    68    78   am
    54    78    79    1
    55    84    82    1
    56    79    82    1
    57    79    80    1
    58    17    18    2
    59    17    16    1
    60    82    83    1
    61    80    81    2
    62    16    19    1
    63    16    15    1
    64    19    20    1
    65    20    21    1
    66    21    22    2
    67    21    23   am
    68     3     4    2
    69     3     2    1
    70    11    13   ar
    71    11     8   ar
    72    13    14   ar
    73     5     2    1
    74     5     6    1
    75     2     1    1
    76     8     6   ar
    77     8    10   ar
    78     6     7   ar
    79    14    12   ar
    80    96    95    1
    81    10    12   ar
    82    10     9   ar
    83     7     9   ar
    84    94    95   ar
    85    94    92   ar
    86    95    93   ar
    87    92    90   ar
    88    93    91   ar
    89    90    91   ar
    90    90    89    1
    91    89    86    1
    92    85    86    1
    93    86    87    1
    94    87    88    2
