@<TRIPOS>MOLECULE
tmp/2bj4B00.pdb
 223 219 0 0 0
SMALL
GASTEIGER

@<TRIPOS>ATOM
      1  N          1.4880   53.7320   -2.4810 N.3    17  LEU17      -0.1231
      2  CA         0.1350   53.2950   -2.8110 C.3    17  LEU17       0.1693
      3  C          0.0830   52.5510   -4.1450 C.2    17  LEU17       0.2592
      4  O         -0.5550   51.4970   -4.2510 O.2    17  LEU17      -0.2718
      5  CB        -0.8470   54.4690   -2.8000 C.3    17  LEU17       0.0284
      6  CG        -1.0740   55.1690   -1.4220 C.3    17  LEU17       0.0019
      7  CD1       -2.0130   56.3780   -1.5970 C.3    17  LEU17       0.0001
      8  CD2       -1.6480   54.2420   -0.4520 C.3    17  LEU17       0.0001
      9  N          0.7930   53.0730   -5.1420 N.am   18  ASP18      -0.1974
     10  CA         0.8580   52.4440   -6.4600 C.3    18  ASP18       0.1709
     11  C          1.3700   50.9900   -6.3520 C.2    18  ASP18       0.2293
     12  O          0.9610   50.1270   -7.1310 O.2    18  ASP18      -0.2864
     13  CB         1.8070   53.1920   -7.3940 C.3    18  ASP18       0.1436
     14  CG         1.3630   54.5930   -7.7350 C.2    18  ASP18       0.3671
     15  OD1        0.1270   54.8680   -7.7480 O.co2  18  ASP18      -0.2456
     16  OD2        2.2070   55.4540   -8.1260 O.co2  18  ASP18      -0.2456
     17  N          0.9930   48.7280   -3.9290 N.3    20  GLU20      -0.1231
     18  CA         0.2480   47.8110   -3.0610 C.3    20  GLU20       0.1684
     19  C         -0.0750   46.5120   -3.7860 C.2    20  GLU20       0.2434
     20  O         -0.5100   46.5390   -4.9320 O.2    20  GLU20      -0.2733
     21  CB        -1.0390   48.4710   -2.5500 C.3    20  GLU20       0.0402
     22  CG        -0.7880   49.3260   -1.3260 C.3    20  GLU20       0.1161
     23  CD        -0.3240   48.4810   -0.1520 C.2    20  GLU20       0.3649
     24  OE1       -1.1360   47.7090    0.3540 O.co2  20  GLU20      -0.2457
     25  OE2        0.8460   48.5560    0.2490 O.co2  20  GLU20      -0.2457
     26  N          0.1600   45.3710   -3.1200 N.am   21  PRO21      -0.2718
     27  CA        -0.0660   44.0850   -3.7460 C.3    21  PRO21       0.1520
     28  C         -1.5600   43.7510   -3.8010 C.2    21  PRO21       0.2440
     29  O         -2.3600   44.3600   -3.0830 O.2    21  PRO21      -0.2731
     30  CB         0.7080   43.1270   -2.8360 C.3    21  PRO21       0.0310
     31  CG         0.6860   43.7660   -1.5310 C.3    21  PRO21       0.0237
     32  CD         0.6800   45.2310   -1.7550 C.3    21  PRO21       0.0939
     33  N         -1.9370   42.7850   -4.6400 N.am   22  PRO22      -0.2716
     34  CA        -3.3130   42.3330   -4.6670 C.3    22  PRO22       0.1536
     35  C         -3.6390   41.5820   -3.3890 C.2    22  PRO22       0.2598
     36  O         -2.7620   40.9860   -2.7630 O.2    22  PRO22      -0.2715
     37  CB        -3.3800   41.4160   -5.9000 C.3    22  PRO22       0.0310
     38  CG        -1.9700   40.9770   -6.1530 C.3    22  PRO22       0.0237
     39  CD        -1.0690   42.0110   -5.5430 C.3    22  PRO22       0.0939
     40  N         -4.8950   41.6440   -2.9840 N.am   23  ILE23      -0.1978
     41  CA        -5.4070   40.8240   -1.8980 C.3    23  ILE23       0.1596
     42  C         -5.9790   39.5690   -2.5350 C.2    23  ILE23       0.2287
     43  O         -6.8860   39.6480   -3.3690 O.2    23  ILE23      -0.2864
     44  CB        -6.4690   41.5830   -1.0870 C.3    23  ILE23       0.0276
     45  CG1       -5.7800   42.5240   -0.0930 C.3    23  ILE23       0.0022
     46  CG2       -7.3950   40.5880   -0.3290 C.3    23  ILE23       0.0022
     47  CD1       -6.7090   43.4070    0.6790 C.3    23  ILE23       0.0001
     48  N         -7.6640   35.7650   -3.0870 N.3    25  TYR25      -0.1241
     49  CA        -8.7180   34.8480   -2.6680 C.3    25  TYR25       0.1605
     50  C         -8.0540   33.5110   -2.3430 C.2    25  TYR25       0.2264
     51  O         -7.0660   33.1540   -2.9660 O.2    25  TYR25      -0.2867
     52  CB        -9.7520   34.6830   -3.7810 C.3    25  TYR25       0.0534
     53  CG       -10.6480   35.8980   -3.9500 C.ar   25  TYR25      -0.0201
     54  CD1      -10.1560   37.0710   -4.5030 C.ar   25  TYR25      -0.0009
     55  CD2      -11.9740   35.8770   -3.5430 C.ar   25  TYR25      -0.0009
     56  CE1      -10.9620   38.1920   -4.6560 C.ar   25  TYR25       0.0417
     57  CE2      -12.8020   37.0000   -3.7100 C.ar   25  TYR25       0.0417
     58  CZ       -12.2720   38.1540   -4.2580 C.ar   25  TYR25       0.1957
     59  OH       -13.0610   39.2810   -4.4280 O.3    25  TYR25      -0.2866
     60  N         -4.8400   44.8350    8.7560 N.3    90  TRP90      -0.1227
     61  CA        -5.5100   45.9340    8.0290 C.3    90  TRP90       0.1737
     62  C         -6.8420   45.5010    7.4850 C.2    90  TRP90       0.2595
     63  O         -7.8630   46.1640    7.7040 O.2    90  TRP90      -0.2718
     64  CB        -4.6480   46.4760    6.8780 C.3    90  TRP90       0.0564
     65  CG        -5.3410   47.5630    6.1270 C.ar   90  TRP90       0.0003
     66  CD1       -5.8580   47.5070    4.8670 C.ar   90  TRP90       0.0946
     67  CD2       -5.6690   48.8630    6.6330 C.ar   90  TRP90       0.0152
     68  NE1       -6.4820   48.6900    4.5630 N.ar   90  TRP90      -0.2442
     69  CE2       -6.3510   49.5470    5.6200 C.ar   90  TRP90       0.0810
     70  CE3       -5.4340   49.5280    7.8540 C.ar   90  TRP90       0.0012
     71  CZ2       -6.8220   50.8430    5.7880 C.ar   90  TRP90       0.0191
     72  CZ3       -5.9000   50.8150    8.0120 C.ar   90  TRP90       0.0001
     73  CH2       -6.5900   51.4500    7.0060 C.ar   90  TRP90       0.0015
     74  N         -6.8500   44.4110    6.7260 N.am   91  ARG91      -0.1980
     75  CA        -8.0760   43.9920    6.0800 C.3    91  ARG91       0.1597
     76  C         -9.1060   43.3700    7.0240 C.2    91  ARG91       0.2287
     77  O        -10.2720   43.1460    6.6240 O.2    91  ARG91      -0.2864
     78  CB        -7.7810   43.1020    4.8600 C.3    91  ARG91       0.0334
     79  CG        -7.1250   41.7550    5.1160 C.3    91  ARG91       0.0492
     80  CD        -6.8920   40.9840    3.8400 C.3    91  ARG91       0.2205
     81  NE        -6.1960   39.7150    4.0380 N.pl3  91  ARG91      -0.0865
     82  CZ        -4.8710   39.5500    4.0320 C.cat  91  ARG91       0.5346
     83  NH1       -4.0430   40.5650    3.8270 N.pl3  91  ARG91       0.1354
     84  NH2       -4.3600   38.3440    4.2090 N.pl3  91  ARG91       0.1354
     85  N         -9.7470   44.8060   10.1030 N.3    93  MET93      -0.1230
     86  CA       -10.2320   45.8510   10.9910 C.3    93  MET93       0.1702
     87  C        -11.7390   46.0760   10.9350 C.2    93  MET93       0.2592
     88  O        -12.3640   46.3480   11.9570 O.2    93  MET93      -0.2718
     89  CB        -9.5150   47.1730   10.7140 C.3    93  MET93       0.0401
     90  CG        -8.2310   47.2730   11.4770 C.3    93  MET93       0.0596
     91  SD        -7.2570   48.6590   10.8990 S.3    93  MET93      -0.1393
     92  CE        -8.2870   50.0410   11.2630 C.3    93  MET93       0.0692
     93  N        -12.3260   45.9170    9.7610 N.am   94  GLU94      -0.1966
     94  CA       -13.7870   46.0340    9.6190 C.3    94  GLU94       0.1733
     95  C        -14.5360   44.7640   10.0540 C.2    94  GLU94       0.2616
     96  O        -15.7540   44.6960    9.9100 O.2    94  GLU94      -0.2715
     97  CB       -14.1460   46.3650    8.1720 C.3    94  GLU94       0.0429
     98  CG       -13.6430   47.7240    7.7000 C.3    94  GLU94       0.1163
     99  CD       -13.5630   47.8180    6.1840 C.2    94  GLU94       0.3649
    100  OE1      -12.8630   46.9950    5.5660 O.co2  94  GLU94      -0.2457
    101  OE2      -14.1950   48.7240    5.6080 O.co2  94  GLU94      -0.2457
    102  N        -13.8190   43.7740   10.5930 N.am   95  HIS95      -0.1973
    103  CA       -14.4050   42.5300   11.0740 C.3    95  HIS95       0.1656
    104  C        -13.9460   42.2090   12.4880 C.2    95  HIS95       0.2291
    105  O        -13.1030   41.3290   12.6920 O.2    95  HIS95      -0.2864
    106  CB       -14.0290   41.3830   10.1500 C.3    95  HIS95       0.0771
    107  CG       -14.4290   41.5950    8.7270 C.ar   95  HIS95       0.0820
    108  ND1      -15.6400   41.1690    8.2230 N.ar   95  HIS95      -0.2267
    109  CD2      -13.7680   42.1640    7.6900 C.ar   95  HIS95       0.1154
    110  CE1      -15.7080   41.4690    6.9370 C.ar   95  HIS95       0.1986
    111  NE2      -14.5830   42.0710    6.5870 N.ar   95  HIS95      -0.2212
    112  N         -9.7170   38.2850    8.4580 N.3   100  LEU100     -0.1245
    113  CA       -10.0740   38.1360    7.0520 C.3   100  LEU100      0.1561
    114  C         -8.8500   37.6900    6.2720 C.2   100  LEU100      0.2260
    115  O         -8.1450   38.5030    5.6620 O.2   100  LEU100     -0.2867
    116  CB       -10.6700   39.4410    6.4860 C.3   100  LEU100      0.0270
    117  CG       -11.2230   39.3550    5.0490 C.3   100  LEU100      0.0019
    118  CD1      -12.6100   38.7230    5.0030 C.3   100  LEU100      0.0001
    119  CD2      -11.2600   40.7140    4.4070 C.3   100  LEU100      0.0001
    120  N        -11.0400   37.2910    1.2110 N.3   103  PRO103     -0.2116
    121  CA       -12.4610   37.6070    1.1050 C.3   103  PRO103      0.1372
    122  C        -13.3310   36.3490    1.2190 C.2   103  PRO103      0.2244
    123  O        -14.4350   36.4290    1.7590 O.2   103  PRO103     -0.2868
    124  CB       -12.5790   38.2410   -0.2860 C.3   103  PRO103      0.0268
    125  CG       -11.2320   38.7720   -0.5550 C.3   103  PRO103      0.0207
    126  CD       -10.2760   37.7750    0.0440 C.3   103  PRO103      0.0892
    127  N         -6.4390   54.0090   12.7560 N.3   136  LEU136     -0.1231
    128  CA        -5.3380   53.9210   11.8110 C.3   136  LEU136      0.1693
    129  C         -5.8780   54.1250   10.3990 C.2   136  LEU136      0.2592
    130  O         -6.8940   53.4990   10.0210 O.2   136  LEU136     -0.2718
    131  CB        -4.6590   52.5460   11.8890 C.3   136  LEU136      0.0284
    132  CG        -3.4510   52.3540   10.9710 C.3   136  LEU136      0.0019
    133  CD1       -2.2910   53.1010   11.5360 C.3   136  LEU136      0.0001
    134  CD2       -3.0940   50.9010   10.7840 C.3   136  LEU136      0.0001
    135  N         -5.2260   55.0150    9.6460 N.am  137  GLN137     -0.1966
    136  CA        -5.5680   55.2830    8.2660 C.3   137  GLN137      0.1733
    137  C         -4.6840   54.4920    7.3050 C.2   137  GLN137      0.2617
    138  O         -3.5730   54.1160    7.6400 O.2   137  GLN137     -0.2715
    139  CB        -5.4290   56.7780    7.9490 C.3   137  GLN137      0.0408
    140  CG        -6.2860   57.6940    8.8280 C.3   137  GLN137      0.0908
    141  CD        -7.7590   57.3850    8.7160 C.2   137  GLN137      0.2608
    142  OE1       -8.3510   57.5400    7.6460 O.2   137  GLN137     -0.2717
    143  NE2       -8.3670   56.9680    9.8290 N.am  137  GLN137     -0.0878
    144  N         -5.2270   54.2250    6.1180 N.am  138  GLY138     -0.1940
    145  CA        -4.5420   53.4370    5.1250 C.3   138  GLY138      0.2014
    146  C         -3.1520   53.9080    4.7580 C.2   138  GLY138      0.2639
    147  O         -2.2360   53.1030    4.6910 O.2   138  GLY138     -0.2714
    148  N         -2.9820   55.2140    4.5240 N.am  139  GLU139     -0.1963
    149  CA        -1.6510   55.7410    4.2100 C.3   139  GLU139      0.1733
    150  C         -0.6690   55.4920    5.3610 C.2   139  GLU139      0.2616
    151  O          0.5380   55.2520    5.1310 O.2   139  GLU139     -0.2715
    152  CB        -1.7150   57.2300    3.8810 C.3   139  GLU139      0.0429
    153  CG        -2.5940   57.5960    2.7140 C.3   139  GLU139      0.1163
    154  CD        -4.0590   57.8560    3.1050 C.2   139  GLU139      0.3649
    155  OE1       -4.5060   57.4250    4.2200 O.co2 139  GLU139     -0.2457
    156  OE2       -4.7630   58.4850    2.2910 O.co2 139  GLU139     -0.2457
    157  N         -1.1640   55.4880    6.6130 N.am  140  GLU140     -0.1963
    158  CA        -0.3030   55.1460    7.7530 C.3   140  GLU140      0.1733
    159  C          0.1200   53.6670    7.7480 C.2   140  GLU140      0.2616
    160  O          1.2740   53.3420    8.0070 O.2   140  GLU140     -0.2715
    161  CB        -0.9740   55.4890    9.0960 C.3   140  GLU140      0.0429
    162  CG        -1.2160   56.9750    9.2750 C.3   140  GLU140      0.1163
    163  CD        -2.1620   57.3280   10.3950 C.2   140  GLU140      0.3649
    164  OE1       -3.0420   56.5190   10.7800 O.co2 140  GLU140     -0.2457
    165  OE2       -2.0340   58.4570   10.8670 O.co2 140  GLU140     -0.2457
    166  N         -0.8420   52.7720    7.5260 N.am  141  PHE141     -0.1960
    167  CA        -0.5640   51.3520    7.3760 C.3   141  PHE141      0.1771
    168  C          0.5050   51.0990    6.2810 C.2   141  PHE141      0.2619
    169  O          1.4580   50.3630    6.4740 O.2   141  PHE141     -0.2715
    170  CB        -1.8900   50.6290    7.0600 C.3   141  PHE141      0.0574
    171  CG        -1.7220   49.3660    6.2470 C.ar  141  PHE141     -0.0200
    172  CD1       -1.2240   48.2120    6.8440 C.ar  141  PHE141     -0.0042
    173  CD2       -2.1180   49.3260    4.9150 C.ar  141  PHE141     -0.0042
    174  CE1       -1.0880   47.0300    6.1010 C.ar  141  PHE141     -0.0003
    175  CE2       -2.0030   48.1550    4.1630 C.ar  141  PHE141     -0.0003
    176  CZ        -1.4540   47.0230    4.7410 C.ar  141  PHE141     -0.0000
    177  N          0.3680   51.7610    5.1390 N.am  142  VAL142     -0.1977
    178  CA         1.2930   51.5890    4.0260 C.3   142  VAL142      0.1596
    179  C          2.7290   52.0550    4.3970 C.2   142  VAL142      0.2287
    180  O          3.7200   51.3640    4.0720 O.2   142  VAL142     -0.2864
    181  CB         0.7290   52.3020    2.7340 C.3   142  VAL142      0.0276
    182  CG1        1.7360   52.3950    1.6630 C.3   142  VAL142      0.0022
    183  CG2       -0.4760   51.5730    2.2210 C.3   142  VAL142      0.0022
    184  N          1.4600   63.4230    6.6860 N.3   181  LEU181     -0.1231
    185  CA         0.0960   62.9370    6.6060 C.3   181  LEU181      0.1693
    186  C         -0.7180   63.4410    7.8070 C.2   181  LEU181      0.2591
    187  O         -1.8170   63.9720    7.6520 O.2   181  LEU181     -0.2718
    188  CB         0.0890   61.4120    6.5560 C.3   181  LEU181      0.0284
    189  CG         0.4870   60.7690    5.2260 C.3   181  LEU181      0.0019
    190  CD1        0.6540   59.2680    5.4440 C.3   181  LEU181      0.0001
    191  CD2       -0.5410   61.0460    4.1320 C.3   181  LEU181      0.0001
    192  N         -0.1360   63.3120    8.9950 N.am  182  MET182     -0.1979
    193  CA        -0.7850   63.7300   10.2470 C.3   182  MET182      0.1605
    194  C         -0.9480   65.2290   10.3160 C.2   182  MET182      0.2287
    195  O         -1.9950   65.7160   10.7500 O.2   182  MET182     -0.2864
    196  CB         0.0250   63.2550   11.4530 C.3   182  MET182      0.0413
    197  CG         0.1770   61.7470   11.5360 C.3   182  MET182      0.0598
    198  SD         1.2570   61.2040   12.8870 S.3   182  MET182     -0.1393
    199  CE         1.3920   59.5040   12.4720 C.3   182  MET182      0.0692
    200  N         -3.6470   66.2910    8.1000 N.3   185  ALA185     -0.1245
    201  CA        -4.9160   65.9440    8.7330 C.3   185  ALA185      0.1562
    202  C         -5.3380   66.9040    9.8480 C.2   185  ALA185      0.2260
    203  O         -6.4700   66.8110   10.3460 O.2   185  ALA185     -0.2867
    204  CB        -4.8490   64.5570    9.2660 C.3   185  ALA185      0.0290
    205  N         -3.5930   67.5120   12.8920 N.3   187  LEU187     -0.1245
    206  CA        -3.1270   67.2010   14.2280 C.3   187  LEU187      0.1561
    207  C         -2.1340   68.2600   14.6760 C.2   187  LEU187      0.2260
    208  O         -1.3710   68.7630   13.8410 O.2   187  LEU187     -0.2867
    209  CB        -2.4370   65.8250   14.2890 C.3   187  LEU187      0.0270
    210  CG        -3.2080   64.5700   13.8640 C.3   187  LEU187      0.0019
    211  CD1       -2.6760   63.3420   14.5970 C.3   187  LEU187      0.0001
    212  CD2       -4.6960   64.6750   14.0520 C.3   187  LEU187      0.0001
    213  N          1.2120   60.3570   18.1760 N.3   195  ARG195     -0.1245
    214  CA         0.7190   59.3550   17.2600 C.3   195  ARG195      0.1563
    215  C          1.8280   58.5590   16.5630 C.2   195  ARG195      0.2260
    216  O          1.7240   57.3460   16.4100 O.2   195  ARG195     -0.2867
    217  CB        -0.1590   59.9860   16.1930 C.3   195  ARG195      0.0307
    218  CG        -0.9070   58.9830   15.3590 C.3   195  ARG195      0.0489
    219  CD        -1.9650   59.6330   14.4850 C.3   195  ARG195      0.2205
    220  NE        -2.6830   58.6870   13.6570 N.pl3 195  ARG195     -0.0865
    221  CZ        -3.7430   57.9820   14.0690 C.cat 195  ARG195      0.5346
    222  NH1       -4.1890   58.0910   15.3090 N.pl3 195  ARG195      0.1354
    223  NH2       -4.3700   57.1880   13.2160 N.pl3 195  ARG195      0.1354
@<TRIPOS>BOND
     1    16    14   ar
     2    15    14   ar
     3    14    13    1
     4    13    10    1
     5    12    11    2
     6    10    11    1
     7    10     9    1
     8    38    37    1
     9    38    39    1
    10    37    34    1
    11    39    33    1
    12     9     3   am
    13    20    19    2
    14    34    33    1
    15    34    35    1
    16    56    54   ar
    17    56    58   ar
    18    33    28   am
    19    54    53   ar
    20    59    58    1
    21    58    57   ar
    22     4     3    2
    23     3     2    1
    24    53    52    1
    25    53    55   ar
    26    17    18    1
    27    28    27    1
    28    28    29    2
    29    19    26   am
    30    19    18    1
    31    52    49    1
    32    27    26    1
    33    27    30    1
    34    57    55   ar
    35    35    40   am
    36    35    36    2
    37    43    42    2
    38    26    32    1
    39    48    49    1
    40    18    21    1
    41    40    41    1
    42    51    50    2
    43    30    31    1
    44     2     5    1
    45     2     1    1
    46     5     6    1
    47    49    50    1
    48    21    22    1
    49    42    41    1
    50    41    44    1
    51    32    31    1
    52     7     6    1
    53     6     8    1
    54    22    23    1
    55    44    46    1
    56    44    45    1
    57   125   124    1
    58   125   126    1
    59   124   121    1
    60    23    25   ar
    61    23    24   ar
    62    45    47    1
    63   126   120    1
    64   121   120    1
    65   121   122    1
    66   122   123    2
    67   182   181    1
    68   183   181    1
    69   156   154   ar
    70   153   154    1
    71   153   152    1
    72   181   178    1
    73   154   155   ar
    74    83    82    1
    75    80    81    1
    76    80    79    1
    77   152   149    1
    78   178   179    1
    79   178   177    1
    80    82    81    2
    81    82    84    1
    82   180   179    2
    83   191   189    1
    84   175   176   ar
    85   175   173   ar
    86   149   148    1
    87   149   150    1
    88   119   117    1
    89   148   146   am
    90    68    66   ar
    91    68    69   ar
    92   147   146    2
    93   176   174   ar
    94   146   145    1
    95    78    79    1
    96    78    75    1
    97    66    65   ar
    98   173   171   ar
    99   118   117    1
   100   117   116    1
   101   145   144    1
   102   151   150    2
   103   177   168   am
   104   189   190    1
   105   189   188    1
   106   150   157   am
   107   100    99   ar
   108   101    99   ar
   109    69    71   ar
   110    69    67   ar
   111   115   114    2
   112    71    73   ar
   113    75    74    1
   114    75    76    1
   115   174   172   ar
   116   144   137   am
   117    65    67   ar
   118    65    64    1
   119    99    98    1
   120   171   172   ar
   121   171   170    1
   122   114   113    1
   123   168   169    2
   124   168   167    1
   125   116   113    1
   126   188   185    1
   127   111   110   ar
   128   111   109   ar
   129   185   184    1
   130   185   186    1
   131   157   158    1
   132    77    76    2
   133    67    70   ar
   134    74    62   am
   135    64    61    1
   136   110   108   ar
   137    73    72   ar
   138   113   112    1
   139   170   167    1
   140   137   138    2
   141   137   136    1
   142   167   166    1
   143    62    63    2
   144    62    61    1
   145   166   159   am
   146   142   141    2
   147   187   186    2
   148   109   107   ar
   149    98    97    1
   150   159   158    1
   151   159   160    2
   152   158   161    1
   153   186   192   am
   154    70    72   ar
   155   139   136    1
   156   139   140    1
   157    61    60    1
   158   200   201    1
   159    97    94    1
   160   108   107   ar
   161   136   135    1
   162   141   140    1
   163   141   143   am
   164   107   106    1
   165   201   204    1
   166   201   202    1
   167   192   193    1
   168   161   162    1
   169   162   163    1
   170    94    93    1
   171    94    95    1
   172   135   129   am
   173    93    87   am
   174   202   203    2
   175    96    95    2
   176   130   129    2
   177    95   102   am
   178    85    86    1
   179   106   103    1
   180   193   194    1
   181   193   196    1
   182   194   195    2
   183   163   164   ar
   184   163   165   ar
   185   129   128    1
   186   102   103    1
   187    89    86    1
   188    89    90    1
   189   134   132    1
   190    91    92    1
   191    91    90    1
   192    87    86    1
   193    87    88    2
   194   132   133    1
   195   132   131    1
   196   103   104    1
   197   196   197    1
   198   197   198    1
   199   128   131    1
   200   128   127    1
   201   199   198    1
   202   104   105    2
   203   205   206    1
   204   223   221    1
   205   220   221    2
   206   220   219    1
   207   208   207    2
   208   210   212    1
   209   210   209    1
   210   210   211    1
   211   221   222    1
   212   206   209    1
   213   206   207    1
   214   219   218    1
   215   218   217    1
   216   217   214    1
   217   216   215    2
   218   215   214    1
   219   214   213    1
