@<TRIPOS>MOLECULE
tmp/2bj7A00.pdb
 115 112 0 0 0
SMALL
GASTEIGER

@<TRIPOS>ATOM
      1  N          3.7590   54.7990  -10.0990 N.3    41  PHE41      -0.1241
      2  CA         3.4050   53.6570  -10.9220 C.3    41  PHE41       0.1605
      3  C          4.3880   52.5140  -10.7000 C.2    41  PHE41       0.2264
      4  O          3.9890   51.3670  -10.4980 O.2    41  PHE41      -0.2867
      5  CB         3.4150   54.0570  -12.3960 C.3    41  PHE41       0.0534
      6  CG         3.0690   52.9350  -13.3240 C.ar   41  PHE41      -0.0203
      7  CD1        1.7410   52.6110  -13.5780 C.ar   41  PHE41      -0.0042
      8  CD2        4.0730   52.2040  -13.9510 C.ar   41  PHE41      -0.0042
      9  CE1        1.4160   51.5720  -14.4480 C.ar   41  PHE41      -0.0003
     10  CE2        3.7590   51.1640  -14.8190 C.ar   41  PHE41      -0.0003
     11  CZ         2.4270   50.8490  -15.0700 C.ar   41  PHE41      -0.0000
     12  N          3.8800   50.9100   -7.2430 N.3    44  ARG44      -0.1231
     13  CA         2.6960   50.0600   -7.1840 C.3    44  ARG44       0.1694
     14  C          2.8710   48.7710   -7.9770 C.2    44  ARG44       0.2592
     15  O          2.2700   47.7520   -7.6510 O.2    44  ARG44      -0.2718
     16  CB         1.4610   50.7960   -7.7120 C.3    44  ARG44       0.0321
     17  CG         1.0660   52.0360   -6.9280 C.3    44  ARG44       0.0489
     18  CD        -0.3490   52.4700   -7.3050 C.3    44  ARG44       0.2205
     19  NE        -0.4960   52.7320   -8.7380 N.pl3  44  ARG44      -0.0865
     20  CZ        -0.1210   53.8580   -9.3390 C.cat  44  ARG44       0.5346
     21  NH1        0.4270   54.8390   -8.6350 N.pl3  44  ARG44       0.1354
     22  NH2       -0.2940   54.0050  -10.6460 N.pl3  44  ARG44       0.1354
     23  N          3.6920   48.8120   -9.0190 N.am   45  HIS45      -0.1976
     24  CA         3.9090   47.6330   -9.8430 C.3    45  HIS45       0.1656
     25  C          5.1260   46.8150   -9.4560 C.2    45  HIS45       0.2291
     26  O          5.5400   45.9250  -10.1950 O.2    45  HIS45      -0.2864
     27  CB         4.0030   48.0400  -11.3090 C.3    45  HIS45       0.0771
     28  CG         2.6890   48.4340  -11.8980 C.ar   45  HIS45       0.0820
     29  ND1        1.8480   47.5300  -12.5100 N.ar   45  HIS45      -0.2267
     30  CD2        2.0410   49.6220  -11.9130 C.ar   45  HIS45       0.1154
     31  CE1        0.7390   48.1450  -12.8760 C.ar   45  HIS45       0.1986
     32  NE2        0.8290   49.4150  -12.5250 N.ar   45  HIS45      -0.2212
     33  N         -2.2050   38.1910  -11.8610 N.3   111  LYS111     -0.1245
     34  CA        -1.5330   39.4780  -12.0150 C.3   111  LYS111      0.1561
     35  C         -1.1580   39.6810  -13.4800 C.2   111  LYS111      0.2260
     36  O         -1.3070   40.7710  -14.0360 O.2   111  LYS111     -0.2867
     37  CB        -0.2720   39.5030  -11.1490 C.3   111  LYS111      0.0271
     38  CG         0.4900   40.8150  -11.1480 C.3   111  LYS111      0.0035
     39  CD        -0.1830   41.8450  -10.2700 C.3   111  LYS111      0.0206
     40  CE         0.7960   42.9480   -9.8950 C.3   111  LYS111      0.1093
     41  NZ         1.9710   42.4320   -9.1350 N.3   111  LYS111     -0.1314
     42  N         -4.3700   40.3360  -15.5330 N.3   114  ALA114     -0.1231
     43  CA        -4.8260   41.6980  -15.2710 C.3   114  ALA114      0.1694
     44  C         -3.9360   42.7060  -16.0110 C.2   114  ALA114      0.2592
     45  O         -4.4340   43.6790  -16.5800 O.2   114  ALA114     -0.2718
     46  CB        -4.8080   41.9780  -13.7750 C.3   114  ALA114      0.0304
     47  N         -2.6250   42.4660  -16.0080 N.am  115  ASP115     -0.1974
     48  CA        -1.6870   43.3560  -16.6920 C.3   115  ASP115      0.1709
     49  C         -1.9960   43.4650  -18.1750 C.2   115  ASP115      0.2293
     50  O         -1.9790   44.5590  -18.7340 O.2   115  ASP115     -0.2864
     51  CB        -0.2410   42.8740  -16.5270 C.3   115  ASP115      0.1436
     52  CG         0.2990   43.1190  -15.1370 C.2   115  ASP115      0.3671
     53  OD1        0.0100   44.1960  -14.5810 O.co2 115  ASP115     -0.2456
     54  OD2        1.0210   42.2460  -14.6070 O.co2 115  ASP115     -0.2456
     55  N         -5.5070   45.4060  -18.6630 N.3   118  LEU118     -0.1231
     56  CA        -5.3850   46.8220  -18.3630 C.3   118  LEU118      0.1693
     57  C         -4.4760   47.5900  -19.3040 C.2   118  LEU118      0.2592
     58  O         -4.5940   48.8070  -19.4170 O.2   118  LEU118     -0.2718
     59  CB        -4.9200   47.0030  -16.9150 C.3   118  LEU118      0.0284
     60  CG        -5.9270   46.4230  -15.9180 C.3   118  LEU118      0.0019
     61  CD1       -5.4110   46.5570  -14.4970 C.3   118  LEU118      0.0001
     62  CD2       -7.2510   47.1480  -16.0770 C.3   118  LEU118      0.0001
     63  N         -3.5730   46.8910  -19.9820 N.am  119  SER119     -0.1952
     64  CA        -2.6660   47.5680  -20.8970 C.3   119  SER119      0.1924
     65  C         -3.1460   47.4930  -22.3450 C.2   119  SER119      0.2314
     66  O         -2.4570   47.9480  -23.2520 O.2   119  SER119     -0.2863
     67  CB        -1.2420   47.0010  -20.7680 C.3   119  SER119      0.2116
     68  OG        -1.1880   45.6170  -21.0670 O.3   119  SER119     -0.2180
     69  N         -8.4390   50.6850  -23.5360 N.3   123  VAL123     -0.1231
     70  CA        -8.9030   50.7020  -22.1430 C.3   123  VAL123      0.1692
     71  C         -8.5140   52.0450  -21.5380 C.2   123  VAL123      0.2592
     72  O         -7.3310   52.3750  -21.4570 O.2   123  VAL123     -0.2718
     73  CB        -8.2690   49.5640  -21.3170 C.3   123  VAL123      0.0266
     74  CG1       -8.6180   49.7290  -19.8370 C.3   123  VAL123      0.0020
     75  CG2       -8.7670   48.2140  -21.8370 C.3   123  VAL123      0.0020
     76  N         -9.5080   52.8250  -21.1240 N.am  124  LYS124     -0.1966
     77  CA        -9.2530   54.1480  -20.5530 C.3   124  LYS124      0.1728
     78  C         -8.6930   54.1250  -19.1370 C.2   124  LYS124      0.2616
     79  O         -7.8130   54.9140  -18.7980 O.2   124  LYS124     -0.2715
     80  CB       -10.5340   54.9850  -20.5470 C.3   124  LYS124      0.0311
     81  CG       -11.0580   55.3770  -21.9150 C.3   124  LYS124      0.0038
     82  CD       -12.3040   56.2540  -21.7680 C.3   124  LYS124      0.0206
     83  CE       -12.9000   56.6190  -23.1200 C.3   124  LYS124      0.1093
     84  NZ       -14.1130   57.4780  -22.9810 N.3   124  LYS124     -0.1314
     85  N         -9.2010   53.2120  -18.3180 N.am  125  HIS125     -0.1959
     86  CA        -8.7850   53.1120  -16.9240 C.3   125  HIS125      0.1787
     87  C         -9.1940   51.7540  -16.3660 C.2   125  HIS125      0.2621
     88  O        -10.0820   51.0930  -16.9100 O.2   125  HIS125     -0.2715
     89  CB        -9.4770   54.2200  -16.1220 C.3   125  HIS125      0.0785
     90  CG        -8.9910   54.3440  -14.7160 C.ar  125  HIS125      0.0821
     91  ND1       -9.8050   54.1290  -13.6250 N.ar  125  HIS125     -0.2267
     92  CD2       -7.7830   54.7010  -14.2200 C.ar  125  HIS125      0.1154
     93  CE1       -9.1200   54.3510  -12.5170 C.ar  125  HIS125      0.1986
     94  NE2       -7.8900   54.7000  -12.8510 N.ar  125  HIS125     -0.2212
     95  N         -8.5590   51.3400  -15.2760 N.am  126  GLY126     -0.1940
     96  CA        -8.9010   50.0640  -14.6780 C.3   126  GLY126      0.2014
     97  C         -8.0260   49.7180  -13.4930 C.2   126  GLY126      0.2639
     98  O         -6.9500   50.2920  -13.3330 O.2   126  GLY126     -0.2714
     99  N         -8.4840   48.7820  -12.6640 N.am  127  LYS127     -0.1963
    100  CA        -7.7330   48.3610  -11.4860 C.3   127  LYS127      0.1728
    101  C         -7.9960   46.8990  -11.1630 C.2   127  LYS127      0.2616
    102  O         -9.0900   46.3730  -11.3990 O.2   127  LYS127     -0.2715
    103  CB        -8.1290   49.1860  -10.2500 C.3   127  LYS127      0.0311
    104  CG        -7.8940   50.6900  -10.3370 C.3   127  LYS127      0.0038
    105  CD        -6.4130   51.0520  -10.3210 C.3   127  LYS127      0.0206
    106  CE        -6.2260   52.5680  -10.3850 C.3   127  LYS127      0.1093
    107  NZ        -4.8060   52.9690  -10.6070 N.3   127  LYS127     -0.1314
    108  N         -6.9820   46.2550  -10.6060 N.am  128  LEU128     -0.1977
    109  CA        -7.0740   44.8700  -10.1880 C.3   128  LEU128      0.1596
    110  C         -7.2020   44.8610   -8.6780 C.2   128  LEU128      0.2287
    111  O         -6.5790   45.6660   -7.9940 O.2   128  LEU128     -0.2864
    112  CB        -5.8080   44.1010  -10.5720 C.3   128  LEU128      0.0297
    113  CG        -5.5540   42.7860   -9.8180 C.3   128  LEU128      0.0022
    114  CD1       -6.5450   41.7060  -10.2440 C.3   128  LEU128      0.0001
    115  CD2       -4.1310   42.3260  -10.0970 C.3   128  LEU128      0.0001
@<TRIPOS>BOND
     1    69    70    1
     2    66    65    2
     3    83    84    1
     4    83    82    1
     5    65    64    1
     6    70    71    1
     7    70    73    1
     8    81    82    1
     9    81    80    1
    10    75    73    1
    11    71    72    2
    12    71    76   am
    13    73    74    1
    14    76    77    1
    15    68    67    1
    16    64    67    1
    17    64    63    1
    18    77    80    1
    19    77    78    1
    20    63    57   am
    21    58    57    2
    22    57    56    1
    23    78    79    2
    24    78    85   am
    25    50    49    2
    26    55    56    1
    27    56    59    1
    28    85    86    1
    29    49    48    1
    30    86    87    1
    31    86    89    1
    32    59    60    1
    33    88    87    2
    34    48    51    1
    35    48    47    1
    36    45    44    2
    37    51    52    1
    38    87    95   am
    39    89    90    1
    40    62    60    1
    41    44    47   am
    42    44    43    1
    43    60    61    1
    44    42    43    1
    45    95    96    1
    46    43    46    1
    47    52    54   ar
    48    52    53   ar
    49    11    10   ar
    50    11     9   ar
    51    10     8   ar
    52    90    92   ar
    53    90    91   ar
    54    96    97    1
    55     9     7   ar
    56    92    94   ar
    57    36    35    2
    58     8     6   ar
    59    91    93   ar
    60     7     6   ar
    61    97    98    2
    62    97    99   am
    63    35    34    1
    64     6     5    1
    65    31    32   ar
    66    31    29   ar
    67    94    93   ar
    68    99   100    1
    69    32    30   ar
    70    29    28   ar
    71     5     2    1
    72    34    33    1
    73    34    37    1
    74    30    28   ar
    75    28    27    1
    76   100   101    1
    77   100   103    1
    78   102   101    2
    79    27    24    1
    80   101   108   am
    81    37    38    1
    82    38    39    1
    83     2     3    1
    84     2     1    1
    85     3     4    2
    86    22    20    1
    87   107   106    1
    88   108   109    1
    89   112   109    1
    90   112   113    1
    91   106   105    1
    92   104   105    1
    93   104   103    1
    94    39    40    1
    95   114   113    1
    96    26    25    2
    97   109   110    1
    98   115   113    1
    99    40    41    1
   100    24    25    1
   101    24    23    1
   102    20    19    2
   103    20    21    1
   104    23    14   am
   105    19    18    1
   106   110   111    2
   107    14    15    2
   108    14    13    1
   109    16    13    1
   110    16    17    1
   111    18    17    1
   112    12    13    1
