@<TRIPOS>MOLECULE
tmp/2bjaA00.pdb
 138 133 0 0 0
SMALL
GASTEIGER

@<TRIPOS>ATOM
      1  N         14.8090   25.9090   97.1230 N.3   180  ILE180     -0.1231
      2  CA        13.8700   26.4650   96.1570 C.3   180  ILE180      0.1692
      3  C         14.6340   27.4890   95.3450 C.2   180  ILE180      0.2592
      4  O         14.9340   28.5780   95.8360 O.2   180  ILE180     -0.2718
      5  CB        12.6770   27.0980   96.8920 C.3   180  ILE180      0.0266
      6  CG1       11.9480   26.0040   97.6820 C.3   180  ILE180      0.0019
      7  CG2       11.7460   27.7630   95.9070 C.3   180  ILE180      0.0020
      8  CD1       10.7970   26.5030   98.5550 C.3   180  ILE180      0.0001
      9  N         14.9280   27.1210   94.0950 N.am  181  ALA181     -0.1966
     10  CA        15.7420   27.9270   93.1870 C.3   181  ALA181      0.1713
     11  C         15.0480   28.8210   92.1590 C.2   181  ALA181      0.2458
     12  O         13.8800   28.6280   91.8190 O.2   181  ALA181     -0.2730
     13  CB        16.7350   27.0090   92.4730 C.3   181  ALA181      0.0333
     14  N         15.7850   29.8090   91.6320 N.am  182  PRO182     -0.2716
     15  CA        15.2550   30.7420   90.6390 C.3   182  PRO182      0.1536
     16  C         15.5390   30.2610   89.2200 C.2   182  PRO182      0.2598
     17  O         16.3080   29.3220   89.0190 O.2   182  PRO182     -0.2715
     18  CB        15.9970   32.0250   90.9680 C.3   182  PRO182      0.0310
     19  CG        17.3860   31.4960   91.2440 C.3   182  PRO182      0.0237
     20  CD        17.1360   30.2220   92.0630 C.3   182  PRO182      0.0939
     21  N         14.9260   30.9080   88.2320 N.am  183  TRP183     -0.1974
     22  CA        15.1470   30.5180   86.8470 C.3   183  TRP183      0.1640
     23  C         16.2880   31.2600   86.1520 C.2   183  TRP183      0.2290
     24  O         16.7500   30.8070   85.1010 O.2   183  TRP183     -0.2864
     25  CB        13.8700   30.7050   86.0190 C.3   183  TRP183      0.0576
     26  CG        13.2560   32.0710   86.1370 C.ar  183  TRP183      0.0006
     27  CD1       12.2090   32.4250   86.9340 C.ar  183  TRP183      0.0946
     28  CD2       13.6780   33.2730   85.4720 C.ar  183  TRP183      0.0152
     29  NE1       11.9520   33.7700   86.8120 N.ar  183  TRP183     -0.2442
     30  CE2       12.8370   34.3160   85.9220 C.ar  183  TRP183      0.0810
     31  CE3       14.6850   33.5710   84.5420 C.ar  183  TRP183      0.0012
     32  CZ2       12.9690   35.6370   85.4760 C.ar  183  TRP183      0.0191
     33  CZ3       14.8180   34.8920   84.0970 C.ar  183  TRP183      0.0001
     34  CH2       13.9630   35.9050   84.5670 C.ar  183  TRP183      0.0015
     35  N         13.7930   22.0340   94.5660 N.3   207  LYS207     -0.1245
     36  CA        12.6300   22.4310   93.7750 C.3   207  LYS207      0.1561
     37  C         13.0430   23.4920   92.7530 C.2   207  LYS207      0.2260
     38  O         13.0950   24.6850   93.0710 O.2   207  LYS207     -0.2867
     39  CB        11.5530   22.9920   94.7130 C.3   207  LYS207      0.0271
     40  CG        10.1130   22.7400   94.2630 C.3   207  LYS207      0.0035
     41  CD         9.8080   23.3550   92.9040 C.3   207  LYS207      0.0206
     42  CE         9.6270   24.8630   92.9980 C.3   207  LYS207      0.1093
     43  NZ         9.2820   25.4190   91.6680 N.3   207  LYS207     -0.1314
     44  N         12.9810   26.0870   89.4810 N.3   209  ALA209     -0.1231
     45  CA        11.9940   27.0390   88.9960 C.3   209  ALA209      0.1694
     46  C         11.2640   26.4460   87.7910 C.2   209  ALA209      0.2591
     47  O         11.8480   25.7140   86.9910 O.2   209  ALA209     -0.2718
     48  CB        12.6690   28.3370   88.6130 C.3   209  ALA209      0.0304
     49  N          9.9840   26.7800   87.6670 N.am  210  GLU210     -0.1979
     50  CA         9.1450   26.2870   86.5740 C.3   210  GLU210      0.1602
     51  C          9.7420   26.4380   85.1680 C.2   210  GLU210      0.2287
     52  O          9.6610   25.5220   84.3500 O.2   210  GLU210     -0.2864
     53  CB         7.7710   26.9860   86.6120 C.3   210  GLU210      0.0415
     54  CG         6.8520   26.5710   87.7640 C.3   210  GLU210      0.1163
     55  CD         7.1080   27.3210   89.0730 C.2   210  GLU210      0.3649
     56  OE1        6.2270   27.2700   89.9580 O.co2 210  GLU210     -0.2457
     57  OE2        8.1720   27.9600   89.2290 O.co2 210  GLU210     -0.2457
     58  N          5.8200   26.2090   92.5990 N.3   240  GLY240     -0.1210
     59  CA         6.2980   26.7830   93.8470 C.3   240  GLY240      0.1956
     60  C          5.2400   26.9500   94.9160 C.2   240  GLY240      0.2611
     61  O          5.4020   26.4420   96.0240 O.2   240  GLY240     -0.2717
     62  N          4.1600   27.6600   94.5960 N.am  241  GLU241     -0.1979
     63  CA         3.0740   27.8950   95.5480 C.3   241  GLU241      0.1602
     64  C          2.3550   26.6310   95.9770 C.2   241  GLU241      0.2287
     65  O          1.4720   26.6860   96.8310 O.2   241  GLU241     -0.2864
     66  CB         2.0380   28.8960   94.9820 C.3   241  GLU241      0.0415
     67  CG         1.7140   28.7700   93.5000 C.3   241  GLU241      0.1163
     68  CD         2.7220   29.5430   92.6500 C.2   241  GLU241      0.3649
     69  OE1        3.8080   28.9980   92.3950 O.co2 241  GLU241     -0.2457
     70  OE2        2.4290   30.6880   92.2440 O.co2 241  GLU241     -0.2457
     71  N          6.2360   23.6720   96.6880 N.3   244  GLY244     -0.1210
     72  CA         7.2580   24.4740   97.3400 C.3   244  GLY244      0.1956
     73  C          6.7610   24.9390   98.6980 C.2   244  GLY244      0.2611
     74  O          7.4170   24.7340   99.7200 O.2   244  GLY244     -0.2717
     75  N          5.5900   25.5670   98.7140 N.am  245  ALA245     -0.1979
     76  CA         5.0020   26.0500   99.9570 C.3   245  ALA245      0.1597
     77  C          4.7710   24.8970  100.9270 C.2   245  ALA245      0.2287
     78  O          5.0040   25.0360  102.1320 O.2   245  ALA245     -0.2864
     79  CB         3.6800   26.7660   99.6710 C.3   245  ALA245      0.0319
     80  N          8.0060   24.1550  102.6380 N.3   248  VAL248     -0.1245
     81  CA         8.3920   25.2470  103.5230 C.3   248  VAL248      0.1561
     82  C          7.6350   25.2300  104.8590 C.2   248  VAL248      0.2260
     83  O          8.2140   25.4790  105.9190 O.2   248  VAL248     -0.2867
     84  CB         8.1620   26.6230  102.8340 C.3   248  VAL248      0.0252
     85  CG1        8.2090   27.7420  103.8680 C.3   248  VAL248      0.0019
     86  CG2        9.2260   26.8530  101.7640 C.3   248  VAL248      0.0019
     87  N         16.5850   29.4670   99.9330 N.3   258  PHE258     -0.1227
     88  CA        15.8110   30.0940   98.8680 C.3   258  PHE258      0.1736
     89  C         16.4400   31.3030   98.2130 C.2   258  PHE258      0.2596
     90  O         17.0330   32.1470   98.8810 O.2   258  PHE258     -0.2718
     91  CB        14.4430   30.5190   99.4240 C.3   258  PHE258      0.0547
     92  CG        13.6490   31.4120   98.4990 C.ar  258  PHE258     -0.0202
     93  CD1       12.8420   30.8670   97.5050 C.ar  258  PHE258     -0.0042
     94  CD2       13.7090   32.8020   98.6290 C.ar  258  PHE258     -0.0042
     95  CE1       12.1050   31.6840   96.6520 C.ar  258  PHE258     -0.0003
     96  CE2       12.9750   33.6330   97.7790 C.ar  258  PHE258     -0.0003
     97  CZ        12.1730   33.0760   96.7900 C.ar  258  PHE258     -0.0000
     98  N         16.2770   31.3730   96.8940 N.am  259  THR259     -0.1939
     99  CA        16.7490   32.4920   96.1010 C.3   259  THR259      0.2028
    100  C         15.6130   32.8030   95.1200 C.2   259  THR259      0.2643
    101  O         15.1250   31.9190   94.4120 O.2   259  THR259     -0.2714
    102  CB        18.0510   32.1450   95.3480 C.3   259  THR259      0.1808
    103  OG1       19.0810   31.8360   96.3010 O.3   259  THR259     -0.2208
    104  CG2       18.4970   33.3180   94.4950 C.3   259  THR259      0.0379
    105  N         15.1650   34.0520   95.1100 N.am  260  GLY260     -0.1939
    106  CA        14.0730   34.4300   94.2330 C.3   260  GLY260      0.2014
    107  C         13.5390   35.8180   94.5460 C.2   260  GLY260      0.2639
    108  O         14.2790   36.6800   95.0300 O.2   260  GLY260     -0.2714
    109  N         12.2530   36.0350   94.2820 N.am  261  SER261     -0.1949
    110  CA        11.6370   37.3420   94.5150 C.3   261  SER261      0.1924
    111  C         11.4560   37.6850   95.9860 C.2   261  SER261      0.2314
    112  O         11.3530   36.8040   96.8440 O.2   261  SER261     -0.2863
    113  CB        10.2700   37.4220   93.8310 C.3   261  SER261      0.2116
    114  OG         9.3460   36.5750   94.4930 O.3   261  SER261     -0.2180
    115  N          8.0410   36.3330   97.4760 N.3   264  VAL264     -0.1245
    116  CA         8.0440   34.9480   97.9370 C.3   264  VAL264      0.1561
    117  C          8.9650   34.7810   99.1510 C.2   264  VAL264      0.2260
    118  O          8.6410   34.0670  100.0980 O.2   264  VAL264     -0.2867
    119  CB         8.4790   33.9810   96.7920 C.3   264  VAL264      0.0252
    120  CG1        8.6860   32.5770   97.3370 C.3   264  VAL264      0.0019
    121  CG2        7.4080   33.9470   95.7020 C.3   264  VAL264      0.0019
    122  N          7.2760   35.6300  102.3550 N.3   267  LYS267     -0.1231
    123  CA         6.3250   34.6030  102.7830 C.3   267  LYS267      0.1693
    124  C          7.0430   33.4160  103.4130 C.2   267  LYS267      0.2591
    125  O          6.5900   32.8600  104.4070 O.2   267  LYS267     -0.2718
    126  CB         5.5020   34.0850  101.5980 C.3   267  LYS267      0.0285
    127  CG         4.4450   35.0330  101.0770 C.3   267  LYS267      0.0035
    128  CD         3.5370   34.2950  100.1060 C.3   267  LYS267      0.0206
    129  CE         2.5290   35.2200   99.4520 C.3   267  LYS267      0.1093
    130  NZ         3.1740   36.1100   98.4510 N.3   267  LYS267     -0.1314
    131  N          8.1570   33.0250  102.8100 N.am  268  ILE268     -0.1980
    132  CA         8.9360   31.8960  103.2980 C.3   268  ILE268      0.1595
    133  C          9.5400   32.1830  104.6620 C.2   268  ILE268      0.2287
    134  O          9.4850   31.3510  105.5630 O.2   268  ILE268     -0.2864
    135  CB        10.0570   31.5420  102.3000 C.3   268  ILE268      0.0276
    136  CG1        9.4330   30.9540  101.0270 C.3   268  ILE268      0.0022
    137  CG2       11.0460   30.5600  102.9310 C.3   268  ILE268      0.0022
    138  CD1       10.4460   30.6240   99.9460 C.3   268  ILE268      0.0001
@<TRIPOS>BOND
     1    33    31   ar
     2    33    34   ar
     3    52    51    2
     4    31    28   ar
     5    34    32   ar
     6    24    23    2
     7    51    50    1
     8    28    30   ar
     9    28    26   ar
    10    32    30   ar
    11    30    29   ar
    12    25    26    1
    13    25    22    1
    14    26    27   ar
    15    23    22    1
    16    50    53    1
    17    50    49    1
    18    53    54    1
    19    29    27   ar
    20    22    21    1
    21    47    46    2
    22    49    46   am
    23    54    55    1
    24    46    45    1
    25    21    16   am
    26    48    45    1
    27    45    44    1
    28    17    16    2
    29    55    57   ar
    30    55    56   ar
    31    16    15    1
    32    15    18    1
    33    15    14    1
    34    18    19    1
    35    19    20    1
    36    14    20    1
    37    14    11   am
    38    43    42    1
    39    12    11    2
    40    11    10    1
    41    70    68   ar
    42    69    68   ar
    43    13    10    1
    44    58    59    1
    45    68    67    1
    46    37    38    2
    47    37    36    1
    48    41    42    1
    49    41    40    1
    50    10     9    1
    51    67    66    1
    52    36    35    1
    53    36    39    1
    54   113   114    1
    55   113   110    1
    56    59    60    1
    57     9     3   am
    58   106   107    1
    59   106   105    1
    60    40    39    1
    61   109   110    1
    62   109   107   am
    63   101   100    2
    64   104   102    1
    65   110   111    1
    66   107   108    2
    67    62    60   am
    68    62    63    1
    69    60    61    2
    70    66    63    1
    71   105   100   am
    72   100    99    1
    73     3     4    2
    74     3     2    1
    75   102    99    1
    76   102   103    1
    77    63    64    1
    78   121   119    1
    79     7     5    1
    80    64    65    2
    81   111   112    2
    82    99    98    1
    83     2     5    1
    84     2     1    1
    85    95    97   ar
    86    95    93   ar
    87    71    72    1
    88    97    96   ar
    89   119   120    1
    90   119   116    1
    91     5     6    1
    92    98    89   am
    93    72    73    1
    94   115   116    1
    95    93    92   ar
    96     6     8    1
    97    96    94   ar
    98   116   117    1
    99    89    88    1
   100    89    90    2
   101   130   129    1
   102    92    94   ar
   103    92    91    1
   104    73    75   am
   105    73    74    2
   106    75    76    1
   107    88    91    1
   108    88    87    1
   109   117   118    2
   110   129   128    1
   111    79    76    1
   112   138   136    1
   113    76    77    1
   114   128   127    1
   115    77    78    2
   116   136   135    1
   117   127   126    1
   118   126   123    1
   119    86    84    1
   120   135   137    1
   121   135   132    1
   122   122   123    1
   123    80    81    1
   124   123   124    1
   125   131   132    1
   126   131   124   am
   127    84    81    1
   128    84    85    1
   129   132   133    1
   130   124   125    2
   131    81    82    1
   132   133   134    2
   133    82    83    2
