@<TRIPOS>MOLECULE
tmp/2bjaB00.pdb
 167 160 0 0 0
SMALL
GASTEIGER

@<TRIPOS>ATOM
      1  N         16.4620   40.6650  125.6410 N.3   180  ILE180     -0.1231
      2  CA        15.4460   40.3230  126.6240 C.3   180  ILE180      0.1692
      3  C         16.0120   39.1690  127.4410 C.2   180  ILE180      0.2592
      4  O         16.1270   38.0460  126.9470 O.2   180  ILE180     -0.2718
      5  CB        14.1280   39.9230  125.9260 C.3   180  ILE180      0.0266
      6  CG1       13.6080   41.1090  125.1020 C.3   180  ILE180      0.0019
      7  CG2       13.0990   39.5200  126.9520 C.3   180  ILE180      0.0020
      8  CD1       12.2640   40.8710  124.4200 C.3   180  ILE180      0.0001
      9  N         16.3580   39.4680  128.6950 N.am  181  ALA181     -0.1966
     10  CA        16.9910   38.5190  129.6100 C.3   181  ALA181      0.1713
     11  C         16.1090   37.8170  130.6440 C.2   181  ALA181      0.2458
     12  O         15.0180   38.2810  130.9810 O.2   181  ALA181     -0.2730
     13  CB        18.1310   39.2180  130.3200 C.3   181  ALA181      0.0333
     14  N         16.6000   36.6900  131.1830 N.am  182  PRO182     -0.2716
     15  CA        15.9060   35.8800  132.1830 C.3   182  PRO182      0.1536
     16  C         16.3000   36.2810  133.6090 C.2   182  PRO182      0.2598
     17  O         17.2730   37.0170  133.8230 O.2   182  PRO182     -0.2715
     18  CB        16.3650   34.4750  131.8310 C.3   182  PRO182      0.0310
     19  CG        17.8400   34.7150  131.5430 C.3   182  PRO182      0.0237
     20  CD        17.8640   36.0410  130.7770 C.3   182  PRO182      0.0939
     21  N         15.5420   35.8020  134.5880 N.am  183  TRP183     -0.1974
     22  CA        15.8420   36.1250  135.9720 C.3   183  TRP183      0.1640
     23  C         16.7730   35.1210  136.6410 C.2   183  TRP183      0.2290
     24  O         17.3320   35.4290  137.6830 O.2   183  TRP183     -0.2864
     25  CB        14.5530   36.2340  136.7960 C.3   183  TRP183      0.0576
     26  CG        13.6460   35.0530  136.6640 C.ar  183  TRP183      0.0006
     27  CD1       12.5540   34.9480  135.8530 C.ar  183  TRP183      0.0946
     28  CD2       13.7820   33.7870  137.3210 C.ar  183  TRP183      0.0152
     29  NE1       12.0010   33.6940  135.9600 N.ar  183  TRP183     -0.2442
     30  CE2       12.7350   32.9610  136.8540 C.ar  183  TRP183      0.0810
     31  CE3       14.6910   33.2670  138.2570 C.ar  183  TRP183      0.0012
     32  CZ2       12.5670   31.6460  137.2910 C.ar  183  TRP183      0.0191
     33  CZ3       14.5250   31.9530  138.6910 C.ar  183  TRP183      0.0001
     34  CH2       13.4680   31.1600  138.2050 C.ar  183  TRP183      0.0015
     35  N         16.2760   44.6750  128.2670 N.3   207  LYS207     -0.1245
     36  CA        15.0610   44.5390  129.0610 C.3   207  LYS207      0.1561
     37  C         15.2570   43.4080  130.0780 C.2   207  LYS207      0.2260
     38  O         15.0990   42.2350  129.7480 O.2   207  LYS207     -0.2867
     39  CB        13.8880   44.2110  128.1240 C.3   207  LYS207      0.0271
     40  CG        12.5420   44.8040  128.5310 C.3   207  LYS207      0.0035
     41  CD        11.5950   43.7520  129.0770 C.3   207  LYS207      0.0206
     42  CE        12.0730   43.2150  130.3960 C.3   207  LYS207      0.1093
     43  NZ        11.1300   42.2340  130.9970 N.3   207  LYS207     -0.1314
     44  N         14.6410   40.8420  133.3470 N.3   209  ALA209     -0.1231
     45  CA        13.4730   40.1090  133.8350 C.3   209  ALA209      0.1694
     46  C         12.9100   40.8480  135.0480 C.2   209  ALA209      0.2591
     47  O         13.6670   41.4020  135.8520 O.2   209  ALA209     -0.2718
     48  CB        13.8640   38.6840  134.2280 C.3   209  ALA209      0.0304
     49  N         11.5860   40.8590  135.1730 N.am  210  GLU210     -0.1979
     50  CA        10.9200   41.5330  136.2800 C.3   210  GLU210      0.1602
     51  C         11.4870   41.1870  137.6610 C.2   210  GLU210      0.2287
     52  O         11.5830   42.0510  138.5250 O.2   210  GLU210     -0.2864
     53  CB         9.4150   41.2170  136.2680 C.3   210  GLU210      0.0415
     54  CG         8.6250   41.8030  135.0970 C.3   210  GLU210      0.1163
     55  CD         8.6790   40.9470  133.8290 C.2   210  GLU210      0.3649
     56  OE1        7.7880   41.1160  132.9640 O.co2 210  GLU210     -0.2457
     57  OE2        9.6070   40.1150  133.6910 O.co2 210  GLU210     -0.2457
     58  N          7.6310   42.2340  130.3180 N.3   240  GLY240     -0.1210
     59  CA         7.9890   41.5540  129.0840 C.3   240  GLY240      0.1956
     60  C          6.9300   41.6510  128.0050 C.2   240  GLY240      0.2611
     61  O          7.2220   42.0350  126.8720 O.2   240  GLY240     -0.2717
     62  N          5.6990   41.2950  128.3570 N.am  241  GLU241     -0.1979
     63  CA         4.5730   41.3370  127.4260 C.3   241  GLU241      0.1602
     64  C          4.2810   42.7250  126.8840 C.2   241  GLU241      0.2287
     65  O          3.6640   42.8680  125.8350 O.2   241  GLU241     -0.2864
     66  CB         3.3050   40.8490  128.1100 C.3   241  GLU241      0.0415
     67  CG         2.9180   39.4320  127.8030 C.3   241  GLU241      0.1163
     68  CD         1.5210   39.1460  128.3230 C.2   241  GLU241      0.3649
     69  OE1        1.1920   37.9660  128.5420 O.co2 241  GLU241     -0.2457
     70  OE2        0.7600   40.1210  128.5110 O.co2 241  GLU241     -0.2457
     71  N          8.6480   44.6030  126.1650 N.3   244  GLY244     -0.1210
     72  CA         9.4330   43.5940  125.4730 C.3   244  GLY244      0.1956
     73  C          8.8480   43.2660  124.1030 C.2   244  GLY244      0.2611
     74  O          9.5520   43.2870  123.0930 O.2   244  GLY244     -0.2717
     75  N          7.5510   42.9710  124.0690 N.am  245  ALA245     -0.1979
     76  CA         6.8660   42.6390  122.8230 C.3   245  ALA245      0.1597
     77  C          6.8450   43.8240  121.8580 C.2   245  ALA245      0.2287
     78  O          6.9460   43.6480  120.6470 O.2   245  ALA245     -0.2864
     79  CB         5.4340   42.1840  123.1210 C.3   245  ALA245      0.0319
     80  N         10.2040   43.8200  120.1760 N.3   248  VAL248     -0.1245
     81  CA        10.3100   42.6570  119.3020 C.3   248  VAL248      0.1561
     82  C          9.5750   42.8450  117.9730 C.2   248  VAL248      0.2260
     83  O         10.1100   42.5290  116.9100 O.2   248  VAL248     -0.2867
     84  CB         9.7590   41.3880  120.0020 C.3   248  VAL248      0.0252
     85  CG1        9.5320   40.2750  118.9820 C.3   248  VAL248      0.0019
     86  CG2       10.7420   40.9170  121.0680 C.3   248  VAL248      0.0019
     87  N         17.3510   36.7850  122.8380 N.3   258  PHE258     -0.1227
     88  CA        16.4770   36.3580  123.9270 C.3   258  PHE258      0.1736
     89  C         16.8770   35.0500  124.5990 C.2   258  PHE258      0.2596
     90  O         17.3550   34.1300  123.9490 O.2   258  PHE258     -0.2718
     91  CB        15.0490   36.2160  123.3740 C.3   258  PHE258      0.0547
     92  CG        14.0790   35.5260  124.3100 C.ar  258  PHE258     -0.0202
     93  CD1       13.3960   36.2460  125.2910 C.ar  258  PHE258     -0.0042
     94  CD2       13.8430   34.1540  124.1990 C.ar  258  PHE258     -0.0042
     95  CE1       12.4890   35.6110  126.1500 C.ar  258  PHE258     -0.0003
     96  CE2       12.9440   33.5060  125.0470 C.ar  258  PHE258     -0.0003
     97  CZ        12.2630   34.2350  126.0270 C.ar  258  PHE258     -0.0000
     98  N         16.6850   34.9930  125.9130 N.am  259  THR259     -0.1939
     99  CA        16.9280   33.7840  126.6950 C.3   259  THR259      0.2028
    100  C         15.7540   33.7330  127.6760 C.2   259  THR259      0.2643
    101  O         15.4780   34.7060  128.3790 O.2   259  THR259     -0.2714
    102  CB        18.2710   33.8180  127.4840 C.3   259  THR259      0.1808
    103  OG1       19.3740   33.8470  126.5670 O.3   259  THR259     -0.2208
    104  CG2       18.3990   32.5720  128.3530 C.3   259  THR259      0.0379
    105  N         15.0430   32.6100  127.7030 N.am  260  GLY260     -0.1939
    106  CA        13.9060   32.4950  128.5960 C.3   260  GLY260      0.2014
    107  C         13.0760   31.2630  128.3030 C.2   260  GLY260      0.2639
    108  O         13.6120   30.2410  127.8770 O.2   260  GLY260     -0.2714
    109  N         11.7670   31.3540  128.5200 N.am  261  SER261     -0.1949
    110  CA        10.8900   30.2100  128.2920 C.3   261  SER261      0.1924
    111  C         10.5970   29.9400  126.8170 C.2   261  SER261      0.2314
    112  O         10.6140   30.8450  125.9770 O.2   261  SER261     -0.2863
    113  CB         9.5650   30.3910  129.0400 C.3   261  SER261      0.2116
    114  OG         8.8080   31.4450  128.4690 O.3   261  SER261     -0.2180
    115  N          7.5910   31.9670  125.3170 N.3   264  VAL264     -0.1245
    116  CA         7.9000   33.3090  124.8430 C.3   264  VAL264      0.1561
    117  C          8.8580   33.2780  123.6530 C.2   264  VAL264      0.2260
    118  O          8.7450   34.0920  122.7370 O.2   264  VAL264     -0.2867
    119  CB         8.5010   34.1620  125.9750 C.3   264  VAL264      0.0252
    120  CG1        8.9380   35.5110  125.4370 C.3   264  VAL264      0.0019
    121  CG2        7.4610   34.3460  127.0800 C.3   264  VAL264      0.0019
    122  N          6.9950   32.7670  120.4690 N.3   267  LYS267     -0.1231
    123  CA         6.2790   33.9700  120.0460 C.3   267  LYS267      0.1693
    124  C          7.2330   34.9580  119.4000 C.2   267  LYS267      0.2591
    125  O          6.9120   35.5700  118.3790 O.2   267  LYS267     -0.2718
    126  CB         5.6050   34.6560  121.2430 C.3   267  LYS267      0.0285
    127  CG         4.4710   33.8620  121.8720 C.3   267  LYS267      0.0035
    128  CD         3.8230   34.6400  123.0040 C.3   267  LYS267      0.0206
    129  CE         2.6610   33.8630  123.6010 C.3   267  LYS267      0.1093
    130  NZ         1.9940   34.6190  124.7040 N.3   267  LYS267     -0.1314
    131  N          8.3970   35.1250  120.0210 N.am  268  ILE268     -0.1980
    132  CA         9.4080   36.0450  119.5260 C.3   268  ILE268      0.1595
    133  C          9.9390   35.6220  118.1620 C.2   268  ILE268      0.2287
    134  O         10.0860   36.4510  117.2640 O.2   268  ILE268     -0.2864
    135  CB        10.5990   36.1590  120.5120 C.3   268  ILE268      0.0276
    136  CG1       10.1340   36.8470  121.8020 C.3   268  ILE268      0.0022
    137  CG2       11.7440   36.9410  119.8670 C.3   268  ILE268      0.0022
    138  CD1       11.2300   37.0880  122.8130 C.3   268  ILE268      0.0001
    139  N          6.4220   31.3140  140.4880 N.3   367  GLN367     -0.1245
    140  CA         7.2860   30.1610  140.2860 C.3   367  GLN367      0.1566
    141  C          6.8850   29.0650  141.2720 C.2   367  GLN367      0.2260
    142  O          6.8380   27.8820  140.9230 O.2   367  GLN367     -0.2867
    143  CB         8.7490   30.5760  140.4930 C.3   367  GLN367      0.0367
    144  CG         9.7820   29.6440  139.8760 C.3   367  GLN367      0.0905
    145  CD         9.4570   29.2610  138.4400 C.2   367  GLN367      0.2608
    146  OE1        8.9830   30.0830  137.6550 O.2   367  GLN367     -0.2717
    147  NE2        9.7220   28.0060  138.0910 N.am  367  GLN367     -0.0878
    148  N          3.7700   27.3780  140.0800 N.3   370  LYS370     -0.1245
    149  CA         4.0560   26.5230  138.9300 C.3   370  LYS370      0.1561
    150  C          4.6860   25.2040  139.3800 C.2   370  LYS370      0.2260
    151  O          4.2620   24.1240  138.9610 O.2   370  LYS370     -0.2867
    152  CB         5.0010   27.2410  137.9580 C.3   370  LYS370      0.0271
    153  CG         5.5090   26.3570  136.8220 C.3   370  LYS370      0.0035
    154  CD         6.6210   27.0230  136.0010 C.3   370  LYS370      0.0206
    155  CE         7.2690   26.0160  135.0480 C.3   370  LYS370      0.1093
    156  NZ         8.3300   26.6150  134.1820 N.3   370  LYS370     -0.1314
    157  N         11.4550   23.6770  136.0040 N.3   418  PHE418     -0.1241
    158  CA        12.2920   24.7630  136.5140 C.3   418  PHE418      0.1605
    159  C         12.2230   24.8790  138.0350 C.2   418  PHE418      0.2264
    160  O         12.1120   25.9720  138.5890 O.2   418  PHE418     -0.2867
    161  CB        11.8810   26.0930  135.8720 C.3   418  PHE418      0.0534
    162  CG        13.0330   26.8600  135.2980 C.ar  418  PHE418     -0.0203
    163  CD1       13.3570   28.1230  135.7800 C.ar  418  PHE418     -0.0042
    164  CD2       13.8140   26.3070  134.2850 C.ar  418  PHE418     -0.0042
    165  CE1       14.4460   28.8260  135.2620 C.ar  418  PHE418     -0.0003
    166  CE2       14.9080   27.0030  133.7600 C.ar  418  PHE418     -0.0003
    167  CZ        15.2220   28.2590  134.2480 C.ar  418  PHE418     -0.0000
@<TRIPOS>BOND
     1    83    82    2
     2   134   133    2
     3    82    81    1
     4   133   132    1
     5   125   124    2
     6    85    84    1
     7    81    84    1
     8    81    80    1
     9   124   131   am
    10   124   123    1
    11   132   131    1
    12   132   135    1
    13   137   135    1
    14    84    86    1
    15   123   122    1
    16   123   126    1
    17   135   136    1
    18    78    77    2
    19   126   127    1
    20   136   138    1
    21    77    76    1
    22   127   128    1
    23   118   117    2
    24    76    79    1
    25    76    75    1
    26    87    88    1
    27   128   129    1
    28    74    73    2
    29    91    88    1
    30    91    92    1
    31   129   130    1
    32   117   116    1
    33    88    89    1
    34    90    89    2
    35    75    73   am
    36    73    72    1
    37    94    92   ar
    38    94    96   ar
    39    92    93   ar
    40     8     6    1
    41    89    98   am
    42   116   115    1
    43   116   119    1
    44    96    97   ar
    45     6     5    1
    46    93    95   ar
    47   120   119    1
    48    72    71    1
    49     1     2    1
    50    65    64    2
    51    98    99    1
    52     5     2    1
    53     5     7    1
    54   119   121    1
    55   112   111    2
    56    97    95   ar
    57   103   102    1
    58     2     3    1
    59    99   102    1
    60    99   100    1
    61   111   110    1
    62    61    60    2
    63    64    63    1
    64     4     3    2
    65    63    66    1
    66    63    62    1
    67     3     9   am
    68   102   104    1
    69   100   105   am
    70   100   101    2
    71   105   106    1
    72    67    66    1
    73    67    68    1
    74   108   107    2
    75    60    62   am
    76    60    59    1
    77    39    40    1
    78    39    36    1
    79    35    36    1
    80   110   109    1
    81   110   113    1
    82   107   109   am
    83   107   106    1
    84    68    70   ar
    85    68    69   ar
    86   114   113    1
    87    40    41    1
    88     9    10    1
    89    36    37    1
    90    41    42    1
    91    59    58    1
    92    10    13    1
    93    10    11    1
    94    38    37    2
    95    42    43    1
    96    11    12    2
    97    11    14   am
    98    20    14    1
    99    20    19    1
   100    14    15    1
   101    19    18    1
   102    18    15    1
   103    15    16    1
   104    56    55   ar
   105    44    45    1
   106    16    17    2
   107    16    21   am
   108    57    55   ar
   109   166   167   ar
   110   166   164   ar
   111    55    54    1
   112    45    48    1
   113    45    46    1
   114   156   155    1
   115   167   165   ar
   116   164   162   ar
   117    21    22    1
   118   155   154    1
   119    46    49   am
   120    46    47    2
   121    54    53    1
   122    49    50    1
   123   165   163   ar
   124   162   163   ar
   125   162   161    1
   126    27    29   ar
   127    27    26   ar
   128   161   158    1
   129    29    30   ar
   130    22    23    1
   131    22    25    1
   132   154   153    1
   133   157   158    1
   134    53    50    1
   135    50    51    1
   136   158   159    1
   137    23    24    2
   138    26    25    1
   139    26    28   ar
   140   153   152    1
   141    30    32   ar
   142    30    28   ar
   143    32    34   ar
   144    28    31   ar
   145   146   145    2
   146    51    52    2
   147   152   149    1
   148   159   160    2
   149   147   145   am
   150    34    33   ar
   151    31    33   ar
   152   145   144    1
   153   149   150    1
   154   149   148    1
   155   151   150    2
   156   144   143    1
   157   140   139    1
   158   140   143    1
   159   140   141    1
   160   142   141    2
