@<TRIPOS>MOLECULE
tmp/2bjfA00.pdb
 182 174 0 0 0
SMALL
GASTEIGER

@<TRIPOS>ATOM
      1  N         28.2360   10.3550   30.7670 N.3     1  CYS1       -0.1235
      2  CA        27.2310    9.9450   29.7460 C.3     1  CYS1        0.1677
      3  C         25.8270   10.0260   30.3130 C.2     1  CYS1        0.2270
      4  O         25.6230    9.8300   31.5120 O.2     1  CYS1       -0.2867
      5  CB        27.4930    8.5140   29.2800 C.3     1  CYS1        0.0956
      6  SG        29.1790    8.1920   28.7770 S.3     1  CYS1       -0.0801
      7  N         21.7560    9.0570   23.5300 N.3    17  ARG17      -0.1245
      8  CA        22.6880    9.3860   24.6050 C.3    17  ARG17       0.1563
      9  C         23.5990   10.5760   24.3320 C.2    17  ARG17       0.2260
     10  O         23.8860   10.9050   23.1790 O.2    17  ARG17      -0.2867
     11  CB        23.5540    8.1590   24.9410 C.3    17  ARG17       0.0307
     12  CG        24.3560    7.5870   23.7600 C.3    17  ARG17       0.0489
     13  CD        25.7690    8.1700   23.6600 C.3    17  ARG17       0.2205
     14  NE        26.5810    7.8570   24.8350 N.pl3  17  ARG17      -0.0865
     15  CZ        27.1660    6.6820   25.0650 C.cat  17  ARG17       0.5346
     16  NH1       27.0460    5.6800   24.1990 N.pl3  17  ARG17       0.1354
     17  NH2       27.8780    6.5080   26.1720 N.pl3  17  ARG17       0.1354
     18  N         27.4690   11.3910   24.7560 N.3    19  MET19      -0.1230
     19  CA        28.7610   10.7410   24.9420 C.3    19  MET19       0.1702
     20  C         29.7080   11.7100   25.6340 C.2    19  MET19       0.2592
     21  O         30.1500   12.6870   25.0290 O.2    19  MET19      -0.2718
     22  CB        29.3470   10.2930   23.6000 C.3    19  MET19       0.0401
     23  CG        30.8070    9.8330   23.6670 C.3    19  MET19       0.0596
     24  SD        31.0550    8.3550   24.6610 S.3    19  MET19      -0.1393
     25  CE        30.2550    7.1360   23.6290 C.3    19  MET19       0.0692
     26  N         30.0120   11.4330   26.9010 N.am   20  ASP20      -0.1960
     27  CA        30.8570   12.3150   27.7020 C.3    20  ASP20       0.1840
     28  C         32.2420   11.7080   27.9190 C.2    20  ASP20       0.2621
     29  O         32.4320   10.8640   28.8020 O.2    20  ASP20      -0.2715
     30  CB        30.1910   12.6400   29.0470 C.3    20  ASP20       0.1450
     31  CG        28.7810   13.2020   28.8960 C.2    20  ASP20       0.3671
     32  OD1       28.4520   13.7670   27.8290 O.co2  20  ASP20      -0.2456
     33  OD2       28.0000   13.0850   29.8640 O.co2  20  ASP20      -0.2456
     34  N         33.1960   12.1340   27.0930 N.am   21  ILE21      -0.1977
     35  CA        34.5920   11.6840   27.1740 C.3    21  ILE21       0.1596
     36  C         35.5540   12.8250   26.8210 C.2    21  ILE21       0.2287
     37  O         35.1530   13.8150   26.2030 O.2    21  ILE21      -0.2864
     38  CB        34.8800   10.4410   26.2770 C.3    21  ILE21       0.0276
     39  CG1       34.3490   10.6490   24.8530 C.3    21  ILE21       0.0022
     40  CG2       34.3130    9.1610   26.9100 C.3    21  ILE21       0.0022
     41  CD1       34.6880    9.5300   23.8830 C.3    21  ILE21       0.0001
     42  N         38.3510   12.3390   25.0380 N.3    23  TYR23      -0.1241
     43  CA        39.1620   11.8170   23.9400 C.3    23  TYR23       0.1605
     44  C         38.3140   11.4390   22.7250 C.2    23  TYR23       0.2264
     45  O         37.0870   11.3660   22.8100 O.2    23  TYR23      -0.2867
     46  CB        39.9680   10.5990   24.4200 C.3    23  TYR23       0.0534
     47  CG        39.1180    9.4610   24.9560 C.ar   23  TYR23      -0.0201
     48  CD1       38.6870    8.4320   24.1180 C.ar   23  TYR23      -0.0009
     49  CD2       38.7470    9.4130   26.3010 C.ar   23  TYR23      -0.0009
     50  CE1       37.9050    7.3870   24.6030 C.ar   23  TYR23       0.0417
     51  CE2       37.9640    8.3720   26.7960 C.ar   23  TYR23       0.0417
     52  CZ        37.5480    7.3630   25.9410 C.ar   23  TYR23       0.1957
     53  OH        36.7770    6.3280   26.4210 O.3    23  TYR23      -0.2866
     54  N         37.5940    8.3580   20.0280 N.3    25  PHE25      -0.1241
     55  CA        37.7850    6.9170   19.8480 C.3    25  PHE25       0.1605
     56  C         37.7210    6.4830   18.3810 C.2    25  PHE25       0.2264
     57  O         37.2620    5.3830   18.0640 O.2    25  PHE25      -0.2867
     58  CB        36.8690    6.0810   20.7720 C.3    25  PHE25       0.0534
     59  CG        35.3880    6.2580   20.5340 C.ar   25  PHE25      -0.0203
     60  CD1       34.6580    5.2790   19.8640 C.ar   25  PHE25      -0.0042
     61  CD2       34.7120    7.3720   21.0250 C.ar   25  PHE25      -0.0042
     62  CE1       33.2850    5.4190   19.6620 C.ar   25  PHE25      -0.0003
     63  CE2       33.3400    7.5260   20.8230 C.ar   25  PHE25      -0.0003
     64  CZ        32.6250    6.5460   20.1420 C.ar   25  PHE25      -0.0000
     65  N         33.6160    2.0630   16.4970 N.3    58  THR58      -0.1218
     66  CA        34.9040    2.1000   15.8220 C.3    58  THR58       0.1862
     67  C         35.3250    0.6990   15.3900 C.2    58  THR58       0.2287
     68  O         34.8610   -0.3010   15.9470 O.2    58  THR58      -0.2866
     69  CB        36.0020    2.7720   16.6910 C.3    58  THR58       0.1770
     70  OG1       37.1900    2.9580   15.9110 O.3    58  THR58      -0.2211
     71  CG2       36.3270    1.9440   17.9380 C.3    58  THR58       0.0375
     72  N         38.3130   -1.5760   15.4780 N.3    60  PHE60      -0.1241
     73  CA        39.5820   -1.7380   16.1770 C.3    60  PHE60       0.1605
     74  C         40.1650   -3.1060   15.8610 C.2    60  PHE60       0.2264
     75  O         39.5100   -4.1320   16.0720 O.2    60  PHE60      -0.2867
     76  CB        39.3750   -1.5780   17.6870 C.3    60  PHE60       0.0534
     77  CG        40.6520   -1.4110   18.4670 C.ar   60  PHE60      -0.0203
     78  CD1       41.1910   -0.1450   18.6830 C.ar   60  PHE60      -0.0042
     79  CD2       41.3060   -2.5170   19.0030 C.ar   60  PHE60      -0.0042
     80  CE1       42.3690    0.0150   19.4110 C.ar   60  PHE60      -0.0003
     81  CE2       42.4850   -2.3670   19.7320 C.ar   60  PHE60      -0.0003
     82  CZ        43.0160   -1.0990   19.9360 C.ar   60  PHE60      -0.0000
     83  N         33.2480   -2.4270   17.1410 N.3    65  THR65      -0.1203
     84  CA        32.7590   -2.3380   18.5170 C.3    65  THR65       0.1994
     85  C         31.9860   -1.0300   18.6940 C.2    65  THR65       0.2618
     86  O         32.3880    0.0100   18.1660 O.2    65  THR65      -0.2717
     87  CB        33.9030   -2.5020   19.5600 C.3    65  THR65       0.1784
     88  OG1       33.3610   -2.4840   20.8860 O.3    65  THR65      -0.2211
     89  CG2       34.9690   -1.4100   19.4180 C.3    65  THR65       0.0376
     90  N         30.8750   -1.0900   19.4260 N.am   66  PHE66      -0.1961
     91  CA        29.8980    0.0050   19.4380 C.3    66  PHE66       0.1771
     92  C         29.7920    0.7780   20.7490 C.2    66  PHE66       0.2619
     93  O         29.9910    0.2250   21.8330 O.2    66  PHE66      -0.2715
     94  CB        28.5140   -0.5200   19.0500 C.3    66  PHE66       0.0574
     95  CG        28.3810   -0.8560   17.5950 C.ar   66  PHE66      -0.0200
     96  CD1       27.8470    0.0690   16.7030 C.ar   66  PHE66      -0.0042
     97  CD2       28.7900   -2.0940   17.1120 C.ar   66  PHE66      -0.0042
     98  CE1       27.7230   -0.2340   15.3510 C.ar   66  PHE66      -0.0003
     99  CE2       28.6730   -2.4060   15.7610 C.ar   66  PHE66      -0.0003
    100  CZ        28.1370   -1.4740   14.8790 C.ar   66  PHE66      -0.0000
    101  N         29.4610    2.0620   20.6230 N.am   67  ALA67      -0.1977
    102  CA        29.1640    2.9250   21.7650 C.3    67  ALA67       0.1597
    103  C         27.6570    2.9850   22.0090 C.2    67  ALA67       0.2287
    104  O         27.2010    2.9990   23.1550 O.2    67  ALA67      -0.2864
    105  CB        29.7160    4.3150   21.5270 C.3    67  ALA67       0.0319
    106  N         26.0800    1.8310   25.5280 N.3    79  GLY79      -0.1225
    107  CA        27.0710    1.5440   26.5610 C.3    79  GLY79       0.1811
    108  C         27.5720    2.8320   27.1850 C.2    79  GLY79       0.2280
    109  O         28.0630    3.7180   26.4840 O.2    79  GLY79      -0.2866
    110  N         29.7320    4.7380   30.6190 N.3    81  ASN81      -0.1240
    111  CA        30.7980    4.5250   31.6020 C.3    81  ASN81       0.1653
    112  C         30.2580    4.0930   32.9650 C.2    81  ASN81       0.2266
    113  O         29.2210    4.5810   33.4150 O.2    81  ASN81      -0.2867
    114  CB        31.6660    5.7820   31.7410 C.3    81  ASN81       0.1155
    115  CG        32.9310    5.5410   32.5540 C.2    81  ASN81       0.2627
    116  OD1       33.5540    4.4790   32.4690 O.2    81  ASN81      -0.2716
    117  ND2       33.3210    6.5350   33.3420 N.am   81  ASN81      -0.0877
    118  N         33.3300   -7.9310   27.1490 N.3   101  VAL101     -0.1231
    119  CA        32.8590   -6.5610   27.3910 C.3   101  VAL101      0.1692
    120  C         32.7080   -5.7540   26.0970 C.2   101  VAL101      0.2592
    121  O         31.6640   -5.1380   25.8650 O.2   101  VAL101     -0.2718
    122  CB        33.7800   -5.7930   28.3800 C.3   101  VAL101      0.0266
    123  CG1       33.1820   -4.4350   28.7320 C.3   101  VAL101      0.0020
    124  CG2       34.0170   -6.6020   29.6440 C.3   101  VAL101      0.0020
    125  N         33.7460   -5.7770   25.2610 N.am  102  TYR102     -0.1976
    126  CA        33.7700   -5.0210   24.0040 C.3   102  TYR102      0.1639
    127  C         32.6780   -5.4460   23.0160 C.2   102  TYR102      0.2290
    128  O         32.3120   -4.6770   22.1250 O.2   102  TYR102     -0.2864
    129  CB        35.1490   -5.1290   23.3320 C.3   102  TYR102      0.0560
    130  CG        35.4960   -6.5250   22.8490 C.ar  102  TYR102     -0.0198
    131  CD1       35.0530   -6.9880   21.6070 C.ar  102  TYR102     -0.0009
    132  CD2       36.2660   -7.3820   23.6320 C.ar  102  TYR102     -0.0009
    133  CE1       35.3610   -8.2690   21.1630 C.ar  102  TYR102      0.0417
    134  CE2       36.5860   -8.6660   23.1930 C.ar  102  TYR102      0.0417
    135  CZ        36.1290   -9.1020   21.9590 C.ar  102  TYR102      0.1957
    136  OH        36.4360  -10.3700   21.5200 O.3   102  TYR102     -0.2866
    137  N         39.9640   -6.9140   23.5360 N.3   132  ILE132     -0.1245
    138  CA        39.6370   -6.8830   22.1080 C.3   132  ILE132      0.1561
    139  C         40.8770   -7.2000   21.2640 C.2   132  ILE132      0.2260
    140  O         40.7800   -7.8120   20.1990 O.2   132  ILE132     -0.2867
    141  CB        39.0030   -5.5160   21.6970 C.3   132  ILE132      0.0252
    142  CG1       38.4060   -5.5850   20.2850 C.3   132  ILE132      0.0019
    143  CG2       40.0110   -4.3640   21.8510 C.3   132  ILE132      0.0019
    144  CD1       37.4800   -4.4270   19.9350 C.3   132  ILE132      0.0001
    145  N         44.8960   -5.1690   26.3620 N.3   136  ILE136     -0.1231
    146  CA        44.2350   -3.8930   26.6370 C.3   136  ILE136      0.1678
    147  C         42.9840   -4.0750   27.4960 C.2   136  ILE136      0.2434
    148  O         42.0740   -4.8190   27.1180 O.2   136  ILE136     -0.2733
    149  CB        43.8600   -3.1450   25.3290 C.3   136  ILE136      0.0265
    150  CG1       45.0850   -2.9840   24.4220 C.3   136  ILE136      0.0019
    151  CG2       43.2500   -1.7810   25.6480 C.3   136  ILE136      0.0020
    152  CD1       44.7580   -2.5660   22.9970 C.3   136  ILE136      0.0001
    153  N         42.9440   -3.4020   28.6640 N.am  137  PRO137     -0.2718
    154  CA        41.7670   -3.4180   29.5300 C.3   137  PRO137      0.1535
    155  C         40.5330   -2.8800   28.8140 C.2   137  PRO137      0.2599
    156  O         40.6210   -1.8950   28.0740 O.2   137  PRO137     -0.2715
    157  CB        42.1600   -2.4750   30.6740 C.3   137  PRO137      0.0310
    158  CG        43.6440   -2.4800   30.6790 C.3   137  PRO137      0.0237
    159  CD        44.0340   -2.5950   29.2420 C.3   137  PRO137      0.0939
    160  N         39.4010   -3.5430   29.0220 N.am  138  ASN138     -0.1959
    161  CA        38.1250   -3.0710   28.5040 C.3   138  ASN138      0.1819
    162  C         37.6260   -1.8790   29.3060 C.2   138  ASN138      0.2621
    163  O         37.8820   -1.7810   30.5100 O.2   138  ASN138     -0.2715
    164  CB        37.0840   -4.1880   28.5490 C.3   138  ASN138      0.1195
    165  CG        37.2670   -5.2030   27.4410 C.2   138  ASN138      0.2630
    166  OD1       37.1320   -4.8830   26.2590 O.2   138  ASN138     -0.2716
    167  ND2       37.5610   -6.4410   27.8180 N.am  138  ASN138     -0.0877
    168  N         36.9210   -0.9760   28.6290 N.am  139  THR139     -0.1951
    169  CA        36.2720    0.1550   29.2840 C.3   139  THR139      0.1897
    170  C         35.2430   -0.3690   30.2870 C.2   139  THR139      0.2313
    171  O         34.5370   -1.3440   30.0140 O.2   139  THR139     -0.2863
    172  CB        35.5900    1.0850   28.2510 C.3   139  THR139      0.1794
    173  OG1       36.5230    1.4160   27.2140 O.3   139  THR139     -0.2208
    174  CG2       35.0950    2.3740   28.9030 C.3   139  THR139      0.0378
    175  N         31.8800   -0.4630   31.8580 N.3   141  LEU141     -0.1245
    176  CA        30.6080   -0.1390   31.2160 C.3   141  LEU141      0.1561
    177  C         29.3810   -0.7250   31.9000 C.2   141  LEU141      0.2260
    178  O         29.4430   -1.7850   32.5270 O.2   141  LEU141     -0.2867
    179  CB        30.6120   -0.6190   29.7600 C.3   141  LEU141      0.0270
    180  CG        31.6060   -0.0370   28.7540 C.3   141  LEU141      0.0019
    181  CD1       31.7290   -0.9730   27.5660 C.3   141  LEU141      0.0001
    182  CD2       31.2070    1.3660   28.3100 C.3   141  LEU141      0.0001
@<TRIPOS>BOND
     1   100    98   ar
     2   100    99   ar
     3    98    96   ar
     4    67    66    1
     5    67    68    2
     6    72    73    1
     7    99    97   ar
     8    66    65    1
     9    66    69    1
    10    74    75    2
    11    74    73    1
    12    70    69    1
    13    73    76    1
    14    69    71    1
    15    96    95   ar
    16    97    95   ar
    17    83    84    1
    18    95    94    1
    19    76    77    1
    20    57    56    2
    21    86    85    2
    22    56    55    1
    23    77    78   ar
    24    77    79   ar
    25    84    85    1
    26    84    87    1
    27    78    80   ar
    28    85    90   am
    29    79    81   ar
    30    94    91    1
    31    80    82   ar
    32    89    87    1
    33    90    91    1
    34    91    92    1
    35    87    88    1
    36    62    60   ar
    37    62    64   ar
    38    81    82   ar
    39    55    54    1
    40    55    58    1
    41    60    59   ar
    42   144   142    1
    43    64    63   ar
    44   140   139    2
    45   142   141    1
    46    59    58    1
    47    59    61   ar
    48   101    92   am
    49   101   102    1
    50    92    93    2
    51    63    61   ar
    52   133   131   ar
    53   133   135   ar
    54   139   138    1
    55   136   135    1
    56   105   102    1
    57   131   130   ar
    58   141   143    1
    59   141   138    1
    60   102   103    1
    61   135   134   ar
    62   103   104    2
    63   138   137    1
    64   128   127    2
    65    44    45    2
    66    44    43    1
    67   130   129    1
    68   130   132   ar
    69   152   150    1
    70   127   126    1
    71    10     9    2
    72   134   132   ar
    73   129   126    1
    74     7     8    1
    75    22    23    1
    76    22    19    1
    77    25    24    1
    78    13    12    1
    79    13    14    1
    80    23    24    1
    81    12    11    1
    82    41    39    1
    83    43    46    1
    84    43    42    1
    85   126   125    1
    86    48    50   ar
    87    48    47   ar
    88    16    15    1
    89     9     8    1
    90    46    47    1
    91   150   149    1
    92    50    52   ar
    93     8    11    1
    94    18    19    1
    95    14    15    2
    96    39    38    1
    97    19    20    1
    98    47    49   ar
    99    21    20    2
   100    15    17    1
   101   125   120   am
   102   149   151    1
   103   149   146    1
   104   106   107    1
   105    20    26   am
   106   121   120    2
   107    52    53    1
   108    52    51   ar
   109   120   119    1
   110    37    36    2
   111   166   165    2
   112    38    40    1
   113    38    35    1
   114    49    51   ar
   115   145   146    1
   116   109   108    2
   117   107   108    1
   118   146   147    1
   119    36    35    1
   120    26    27    1
   121    34    35    1
   122    34    28   am
   123   148   147    2
   124   118   119    1
   125   173   172    1
   126   119   122    1
   127   165   167   am
   128   165   164    1
   129   147   153   am
   130   181   180    1
   131    27    28    1
   132    27    30    1
   133    32    31   ar
   134    28    29    2
   135   156   155    2
   136   172   174    1
   137   172   169    1
   138   182   180    1
   139   122   123    1
   140   122   124    1
   141   161   164    1
   142   161   160    1
   143   161   162    1
   144   168   169    1
   145   168   162   am
   146   153   159    1
   147   153   154    1
   148   180   179    1
   149     6     5    1
   150   155   160   am
   151   155   154    1
   152    31    30    1
   153    31    33   ar
   154   159   158    1
   155     5     2    1
   156   169   170    1
   157   162   163    2
   158   154   157    1
   159     2     3    1
   160     2     1    1
   161   179   176    1
   162   171   170    2
   163     3     4    2
   164   110   111    1
   165   157   158    1
   166   176   175    1
   167   176   177    1
   168   111   114    1
   169   111   112    1
   170   114   115    1
   171   177   178    2
   172   116   115    2
   173   115   117   am
   174   112   113    2
