@<TRIPOS>MOLECULE
tmp/2bjfA01.pdb
 78 71 0 0 0
SMALL
GASTEIGER

@<TRIPOS>ATOM
      1  N         28.2360   10.3550   30.7670 N.3     1  CYS1       -0.1235
      2  CA        27.2310    9.9450   29.7460 C.3     1  CYS1        0.1677
      3  C         25.8270   10.0260   30.3130 C.2     1  CYS1        0.2270
      4  O         25.6230    9.8300   31.5120 O.2     1  CYS1       -0.2867
      5  CB        27.4930    8.5140   29.2800 C.3     1  CYS1        0.0956
      6  SG        29.1790    8.1920   28.7770 S.3     1  CYS1       -0.0801
      7  N         30.0120   11.4330   26.9010 N.3    20  ASP20      -0.1239
      8  CA        30.8570   12.3150   27.7020 C.3    20  ASP20       0.1674
      9  C         32.2420   11.7080   27.9190 C.2    20  ASP20       0.2266
     10  O         32.4320   10.8640   28.8020 O.2    20  ASP20      -0.2867
     11  CB        30.1910   12.6400   29.0470 C.3    20  ASP20       0.1410
     12  CG        28.7810   13.2020   28.8960 C.2    20  ASP20       0.3668
     13  OD1       28.4520   13.7670   27.8290 O.co2  20  ASP20      -0.2456
     14  OD2       28.0000   13.0850   29.8640 O.co2  20  ASP20      -0.2456
     15  N         29.7320    4.7380   30.6190 N.3    81  ASN81      -0.1240
     16  CA        30.7980    4.5250   31.6020 C.3    81  ASN81       0.1653
     17  C         30.2580    4.0930   32.9650 C.2    81  ASN81       0.2266
     18  O         29.2210    4.5810   33.4150 O.2    81  ASN81      -0.2867
     19  CB        31.6660    5.7820   31.7410 C.3    81  ASN81       0.1155
     20  CG        32.9310    5.5410   32.5540 C.2    81  ASN81       0.2627
     21  OD1       33.5540    4.4790   32.4690 O.2    81  ASN81      -0.2716
     22  ND2       33.3210    6.5350   33.3420 N.am   81  ASN81      -0.0877
     23  N         32.5790    3.2490   36.0960 N.3    83  PRO83      -0.2102
     24  CA        33.9240    3.0360   36.6460 C.3    83  PRO83       0.1504
     25  C         33.9470    2.4530   38.0530 C.2    83  PRO83       0.2575
     26  O         34.9230    1.8020   38.4320 O.2    83  PRO83      -0.2718
     27  CB        34.5260    4.4430   36.6530 C.3    83  PRO83       0.0282
     28  CG        33.3630    5.3460   36.7940 C.3    83  PRO83       0.0208
     29  CD        32.2230    4.6810   36.0720 C.3    83  PRO83       0.0893
     30  N         32.8910    2.6960   38.8210 N.am   84  VAL84      -0.1980
     31  CA        32.8230    2.1970   40.1860 C.3    84  VAL84       0.1595
     32  C         31.6800    1.1960   40.3100 C.2    84  VAL84       0.2287
     33  O         30.6150    1.3810   39.7090 O.2    84  VAL84      -0.2864
     34  CB        32.6680    3.3390   41.2240 C.3    84  VAL84       0.0276
     35  CG1       33.0450    2.8480   42.6180 C.3    84  VAL84       0.0022
     36  CG2       33.5340    4.5430   40.8500 C.3    84  VAL84       0.0022
     37  N         25.9150    7.3220   34.9910 N.3   174  ASN174     -0.1240
     38  CA        27.0830    6.5230   35.3320 C.3   174  ASN174      0.1653
     39  C         26.9760    6.0270   36.7780 C.2   174  ASN174      0.2266
     40  O         25.8640    5.8350   37.2740 O.2   174  ASN174     -0.2867
     41  CB        28.3590    7.3310   35.0650 C.3   174  ASN174      0.1155
     42  CG        28.3700    7.9660   33.6750 C.2   174  ASN174      0.2627
     43  OD1       28.1400    9.1680   33.5260 O.2   174  ASN174     -0.2716
     44  ND2       28.6120    7.1540   32.6530 N.am  174  ASN174     -0.0877
     45  N         27.6220   12.2270   37.7300 N.3   224  PRO224     -0.2116
     46  CA        26.5860   11.3000   37.2660 C.3   224  PRO224      0.1372
     47  C         25.2860   11.3600   38.0760 C.2   224  PRO224      0.2244
     48  O         24.2050   11.3410   37.4860 O.2   224  PRO224     -0.2868
     49  CB        27.2550    9.9310   37.4020 C.3   224  PRO224      0.0268
     50  CG        28.7140   10.2150   37.2960 C.3   224  PRO224      0.0207
     51  CD        28.9030   11.5380   37.9780 C.3   224  PRO224      0.0892
     52  N         23.3840   14.6800   37.2770 N.3   227  ARG227     -0.1245
     53  CA        22.8450   14.6040   35.9210 C.3   227  ARG227      0.1563
     54  C         21.6400   13.6690   35.8380 C.2   227  ARG227      0.2260
     55  O         20.6740   13.9670   35.1350 O.2   227  ARG227     -0.2867
     56  CB        23.9330   14.2080   34.9170 C.3   227  ARG227      0.0307
     57  CG        24.9720   15.3000   34.7000 C.3   227  ARG227      0.0489
     58  CD        25.9500   14.9610   33.5840 C.3   227  ARG227      0.2205
     59  NE        26.9700   13.9920   33.9880 N.pl3 227  ARG227     -0.0865
     60  CZ        26.9210   12.6870   33.7330 C.cat 227  ARG227      0.5346
     61  NH1       25.8870   12.1660   33.0810 N.pl3 227  ARG227      0.1354
     62  NH2       27.9070   11.8960   34.1370 N.pl3 227  ARG227      0.1354
     63  N         28.2870   18.3840   29.0570 N.3   260  MET260     -0.1245
     64  CA        29.5090   18.9810   29.5930 C.3   260  MET260      0.1570
     65  C         30.0670   20.0370   28.6440 C.2   260  MET260      0.2261
     66  O         30.0130   19.8760   27.4200 O.2   260  MET260     -0.2867
     67  CB        30.5640   17.9110   29.8750 C.3   260  MET260      0.0387
     68  CG        30.1890   16.9590   30.9950 C.3   260  MET260      0.0595
     69  SD        31.4030   15.6510   31.2100 S.3   260  MET260     -0.1393
     70  CE        30.5530   14.6120   32.3920 C.3   260  MET260      0.0692
     71  N         36.6720   17.3110   29.8770 N.3   273  ASP273     -0.1239
     72  CA        35.6470   16.3200   29.5820 C.3   273  ASP273      0.1674
     73  C         34.5010   17.0320   28.8660 C.2   273  ASP273      0.2266
     74  O         33.9950   18.0470   29.3530 O.2   273  ASP273     -0.2867
     75  CB        35.1580   15.6760   30.8840 C.3   273  ASP273      0.1410
     76  CG        34.5560   14.2940   30.6800 C.2   273  ASP273      0.3668
     77  OD1       34.4350   13.8330   29.5260 O.co2 273  ASP273     -0.2456
     78  OD2       34.1950   13.6610   31.6960 O.co2 273  ASP273     -0.2456
@<TRIPOS>BOND
     1     7     8    1
     2    66    65    2
     3     8     9    1
     4     8    11    1
     5    13    12   ar
     6     9    10    2
     7    65    64    1
     8     6     5    1
     9    73    74    2
    10    73    72    1
    11    12    11    1
    12    12    14   ar
    13    63    64    1
    14     5     2    1
    15    77    76   ar
    16    72    71    1
    17    72    75    1
    18    64    67    1
    19     2     3    1
    20     2     1    1
    21    67    68    1
    22     3     4    2
    23    15    16    1
    24    76    75    1
    25    76    78   ar
    26    68    69    1
    27    69    70    1
    28    16    19    1
    29    16    17    1
    30    19    20    1
    31    21    20    2
    32    20    22   am
    33    44    42   am
    34    17    18    2
    35    61    60    1
    36    43    42    2
    37    58    59    1
    38    58    57    1
    39    42    41    1
    40    60    59    2
    41    60    62    1
    42    57    56    1
    43    56    53    1
    44    37    38    1
    45    41    38    1
    46    55    54    2
    47    38    39    1
    48    54    53    1
    49    53    52    1
    50    29    23    1
    51    29    28    1
    52    23    24    1
    53    24    27    1
    54    24    25    1
    55    27    28    1
    56    39    40    2
    57    46    49    1
    58    46    45    1
    59    46    47    1
    60    50    49    1
    61    50    51    1
    62    48    47    2
    63    45    51    1
    64    25    26    2
    65    25    30   am
    66    30    31    1
    67    33    32    2
    68    31    32    1
    69    31    34    1
    70    36    34    1
    71    34    35    1
