@<TRIPOS>MOLECULE
tmp/2bjsA01.pdb
 139 132 0 0 0
SMALL
GASTEIGER

@<TRIPOS>ATOM
      1  N         18.0340   33.6110   17.1330 N.3    73  ILE73      -0.1245
      2  CA        18.9910   34.6000   16.6330 C.3    73  ILE73       0.1561
      3  C         19.3580   35.6060   17.7210 C.2    73  ILE73       0.2260
      4  O         18.6880   35.6980   18.7720 O.2    73  ILE73      -0.2867
      5  CB        18.4210   35.3280   15.3890 C.3    73  ILE73       0.0252
      6  CG1       17.1200   36.0590   15.7250 C.3    73  ILE73       0.0019
      7  CG2       18.2710   34.3060   14.2490 C.3    73  ILE73       0.0019
      8  CD1       16.6760   36.9960   14.6620 C.3    73  ILE73       0.0001
      9  N         18.9500   38.7150   18.0840 N.3    75  ALA75      -0.1231
     10  CA        17.9510   39.6860   18.4770 C.3    75  ALA75       0.1694
     11  C         17.1700   39.2250   19.7070 C.2    75  ALA75       0.2592
     12  O         16.6390   40.0250   20.4200 O.2    75  ALA75      -0.2718
     13  CB        16.9410   39.9200   17.3630 C.3    75  ALA75       0.0304
     14  N         17.0570   37.9020   19.9050 N.am   76  TYR76      -0.1976
     15  CA        16.2990   37.3220   21.0490 C.3    76  TYR76       0.1639
     16  C         17.2090   36.7030   22.0510 C.2    76  TYR76       0.2290
     17  O         16.7690   36.4470   23.1750 O.2    76  TYR76      -0.2864
     18  CB        15.2840   36.3020   20.5350 C.3    76  TYR76       0.0560
     19  CG        14.2470   36.8810   19.6040 C.ar   76  TYR76      -0.0198
     20  CD1       13.1530   37.4960   20.1040 C.ar   76  TYR76      -0.0009
     21  CD2       14.3660   36.8340   18.2340 C.ar   76  TYR76      -0.0009
     22  CE1       12.2050   38.1060   19.2230 C.ar   76  TYR76       0.0417
     23  CE2       13.4350   37.4160   17.3990 C.ar   76  TYR76       0.0417
     24  CZ        12.4050   38.0690   17.8960 C.ar   76  TYR76       0.1957
     25  OH        11.4450   38.7140   17.0660 O.3    76  TYR76      -0.2866
     26  N         22.8570   36.0360   13.0500 N.3    84  VAL84      -0.1245
     27  CA        22.1480   37.1790   12.6270 C.3    84  VAL84       0.1561
     28  C         21.0050   36.7950   11.7480 C.2    84  VAL84       0.2260
     29  O         19.8790   37.2640   11.9900 O.2    84  VAL84      -0.2867
     30  CB        23.1130   38.1620   11.9040 C.3    84  VAL84       0.0252
     31  CG1       22.3870   39.4030   11.4590 C.3    84  VAL84       0.0019
     32  CG2       24.2820   38.5560   12.8800 C.3    84  VAL84       0.0019
     33  N         13.1930   32.9750   15.1860 N.3    89  TYR89      -0.1241
     34  CA        12.7410   34.3500   15.3830 C.3    89  TYR89       0.1605
     35  C         11.4660   34.2000   16.2100 C.2    89  TYR89       0.2264
     36  O         10.4220   33.7550   15.7000 O.2    89  TYR89      -0.2867
     37  CB        12.4430   35.0550   14.0450 C.3    89  TYR89       0.0534
     38  CG        13.6520   35.3020   13.1310 C.ar   89  TYR89      -0.0201
     39  CD1       14.5460   34.3030   12.7640 C.ar   89  TYR89      -0.0009
     40  CD2       13.8310   36.5350   12.5190 C.ar   89  TYR89      -0.0009
     41  CE1       15.5620   34.5350   11.8720 C.ar   89  TYR89       0.0417
     42  CE2       14.8480   36.7550   11.5780 C.ar   89  TYR89       0.0417
     43  CZ        15.7060   35.7460   11.2800 C.ar   89  TYR89       0.1957
     44  OH        16.7120   36.0100   10.3540 O.3    89  TYR89      -0.2866
     45  N          3.6780   40.3410   19.6130 N.3    96  LYS96      -0.1245
     46  CA         4.1760   39.9200   18.2970 C.3    96  LYS96       0.1561
     47  C          3.6550   38.5580   18.0310 C.2    96  LYS96       0.2260
     48  O          3.9900   37.5840   18.7650 O.2    96  LYS96      -0.2867
     49  CB         5.7230   39.9570   18.2600 C.3    96  LYS96       0.0271
     50  CG         6.2970   39.4910   16.9640 C.3    96  LYS96       0.0035
     51  CD         7.8310   39.5560   16.9580 C.3    96  LYS96       0.0206
     52  CE         8.4560   39.1280   15.6700 C.3    96  LYS96       0.1093
     53  NZ         8.6250   37.6450   15.5480 N.3    96  LYS96      -0.1314
     54  N          3.6890   36.7200   14.9360 N.3    98  VAL98      -0.1231
     55  CA         4.4560   35.9390   14.0050 C.3    98  VAL98       0.1692
     56  C          5.6900   35.3280   14.6220 C.2    98  VAL98       0.2592
     57  O          6.3430   35.9500   15.4930 O.2    98  VAL98      -0.2718
     58  CB         4.8060   36.8330   12.7640 C.3    98  VAL98       0.0266
     59  CG1        5.8340   37.9270   13.1200 C.3    98  VAL98       0.0020
     60  CG2        5.3070   36.0250   11.6300 C.3    98  VAL98       0.0020
     61  N          6.1140   34.1660   14.1540 N.am   99  GLU99      -0.1966
     62  CA         7.3660   33.5620   14.5230 C.3    99  GLU99       0.1733
     63  C          7.8860   32.8010   13.3020 C.2    99  GLU99       0.2617
     64  O          7.0880   32.4260   12.4000 O.2    99  GLU99      -0.2715
     65  CB         7.2160   32.6820   15.7460 C.3    99  GLU99       0.0429
     66  CG         6.2910   31.4900   15.5630 C.3    99  GLU99       0.1163
     67  CD         6.0450   30.7860   16.8500 C.2    99  GLU99       0.3649
     68  OE1        6.8700   29.7860   17.0960 O.co2  99  GLU99      -0.2457
     69  OE2        5.1050   31.0190   17.5620 O.co2  99  GLU99      -0.2457
     70  N          9.1750   32.4990   13.2500 N.am  100  SER100     -0.1950
     71  CA         9.7230   31.8720   12.0640 C.3   100  SER100      0.1924
     72  C         11.0370   31.2350   12.3350 C.2   100  SER100      0.2314
     73  O         11.7130   31.4820   13.3540 O.2   100  SER100     -0.2863
     74  CB         9.8350   32.8510   10.9320 C.3   100  SER100      0.2116
     75  OG        10.7420   33.8900   11.2200 O.3   100  SER100     -0.2180
     76  N         12.7350   30.7970    4.7220 N.3   183  VAL183     -0.1245
     77  CA        12.1100   31.1720    5.9740 C.3   183  VAL183      0.1561
     78  C         10.8320   30.4270    6.1380 C.2   183  VAL183      0.2260
     79  O          9.9400   30.5090    5.2600 O.2   183  VAL183     -0.2867
     80  CB        11.9210   32.6980    6.0840 C.3   183  VAL183      0.0252
     81  CG1       11.4450   33.0500    7.5200 C.3   183  VAL183      0.0019
     82  CG2       13.1770   33.4310    5.7690 C.3   183  VAL183      0.0019
     83  N          7.7000   30.6480    8.0570 N.3   185  ILE185     -0.1245
     84  CA         6.9180   31.5900    8.9250 C.3   185  ILE185      0.1561
     85  C          5.5940   31.0310    9.3460 C.2   185  ILE185      0.2260
     86  O          4.8100   30.5430    8.4960 O.2   185  ILE185     -0.2867
     87  CB         6.6640   32.9220    8.1810 C.3   185  ILE185      0.0252
     88  CG1        7.9010   33.4850    7.5380 C.3   185  ILE185      0.0019
     89  CG2        5.9770   33.9290    9.1430 C.3   185  ILE185      0.0019
     90  CD1        7.6210   34.6600    6.5750 C.3   185  ILE185      0.0001
     91  N          2.1040   32.1860   10.9430 N.3   187  TYR187     -0.1241
     92  CA         1.1230   33.2070   11.4090 C.3   187  TYR187      0.1605
     93  C          0.0450   32.4830   12.1700 C.2   187  TYR187      0.2264
     94  O         -0.6980   31.6900   11.5890 O.2   187  TYR187     -0.2867
     95  CB         0.5710   33.9590   10.1590 C.3   187  TYR187      0.0534
     96  CG         1.4710   35.0420    9.6140 C.ar  187  TYR187     -0.0201
     97  CD1        1.5100   36.2680   10.2650 C.ar  187  TYR187     -0.0009
     98  CD2        2.3370   34.8680    8.5230 C.ar  187  TYR187     -0.0009
     99  CE1        2.3300   37.3330    9.8420 C.ar  187  TYR187      0.0417
    100  CE2        3.0940   35.9230    8.0600 C.ar  187  TYR187      0.0417
    101  CZ         3.0770   37.1580    8.7430 C.ar  187  TYR187      0.1957
    102  OH         3.8810   38.2750    8.3790 O.3   187  TYR187     -0.2866
    103  N          2.1540   42.9270    8.2980 N.3   209  PHE209     -0.1241
    104  CA         3.5540   43.2880    7.7570 C.3   209  PHE209      0.1605
    105  C          3.3050   44.4840    6.8720 C.2   209  PHE209      0.2264
    106  O          2.4500   44.4500    5.9570 O.2   209  PHE209     -0.2867
    107  CB         4.2100   42.0600    7.0620 C.3   209  PHE209      0.0534
    108  CG         5.7380   42.1880    6.9580 C.ar  209  PHE209     -0.0203
    109  CD1        6.5550   41.4810    7.8380 C.ar  209  PHE209     -0.0042
    110  CD2        6.3400   42.9300    5.9660 C.ar  209  PHE209     -0.0042
    111  CE1        7.9530   41.5350    7.7240 C.ar  209  PHE209     -0.0003
    112  CE2        7.7800   42.9960    5.8510 C.ar  209  PHE209     -0.0003
    113  CZ         8.5710   42.3650    6.7640 C.ar  209  PHE209     -0.0000
    114  N         14.2630   33.2560   -0.7180 N.3   283  PHE283     -0.1241
    115  CA        14.8800   34.4970   -1.2850 C.3   283  PHE283      0.1605
    116  C         16.0010   34.0990   -2.1430 C.2   283  PHE283      0.2264
    117  O         17.0130   33.5760   -1.6540 O.2   283  PHE283     -0.2867
    118  CB        15.2530   35.4570   -0.1430 C.3   283  PHE283      0.0534
    119  CG        14.0850   35.9270    0.6430 C.ar  283  PHE283     -0.0203
    120  CD1       13.1720   36.8210    0.1100 C.ar  283  PHE283     -0.0042
    121  CD2       13.7650   35.4200    1.9440 C.ar  283  PHE283     -0.0042
    122  CE1       12.0500   37.2240    0.8200 C.ar  283  PHE283     -0.0003
    123  CE2       12.6700   35.8410    2.6510 C.ar  283  PHE283     -0.0003
    124  CZ        11.8130   36.7340    2.0850 C.ar  283  PHE283     -0.0000
    125  N         19.5500   43.7680    4.5910 N.3   319  LEU319     -0.1231
    126  CA        19.0620   42.9570    5.7180 C.3   319  LEU319      0.1693
    127  C         18.9740   43.7200    7.0250 C.2   319  LEU319      0.2591
    128  O         18.2730   43.2760    7.9520 O.2   319  LEU319     -0.2718
    129  CB        19.8800   41.6680    5.8510 C.3   319  LEU319      0.0284
    130  CG        19.5550   40.7650    4.6510 C.3   319  LEU319      0.0019
    131  CD1       20.2540   39.4960    4.8320 C.3   319  LEU319      0.0001
    132  CD2       18.0690   40.5430    4.4700 C.3   319  LEU319      0.0001
    133  N         19.6370   44.8650    7.0950 N.am  320  VAL320     -0.1980
    134  CA        19.3860   45.8190    8.2110 C.3   320  VAL320      0.1595
    135  C         17.8910   46.2790    8.2790 C.2   320  VAL320      0.2287
    136  O         17.3260   46.4240    9.4120 O.2   320  VAL320     -0.2864
    137  CB        20.2660   47.0220    8.0580 C.3   320  VAL320      0.0276
    138  CG1       20.0130   47.9830    9.2050 C.3   320  VAL320      0.0022
    139  CG2       21.7400   46.5790    8.0310 C.3   320  VAL320      0.0022
@<TRIPOS>BOND
     1   116   117    2
     2   116   115    1
     3   115   114    1
     4   115   118    1
     5   118   119    1
     6   120   119   ar
     7   120   122   ar
     8   119   121   ar
     9   122   124   ar
    10   121   123   ar
    11   124   123   ar
    12   132   130    1
    13   125   126    1
    14   130   131    1
    15   130   129    1
    16    76    77    1
    17    79    78    2
    18   126   129    1
    19   126   127    1
    20    82    80    1
    21   112   110   ar
    22   112   113   ar
    23   106   105    2
    24   110   108   ar
    25    77    80    1
    26    77    78    1
    27    80    81    1
    28    90    88    1
    29   113   111   ar
    30   105   104    1
    31   108   107    1
    32   108   109   ar
    33   127   133   am
    34   127   128    2
    35   107   104    1
    36   133   134    1
    37    88    87    1
    38   111   109   ar
    39   104   103    1
    40   139   137    1
    41    83    84    1
    42   137   134    1
    43   137   138    1
    44   100    98   ar
    45   100   101   ar
    46    87    84    1
    47    87    89    1
    48   134   135    1
    49   135   136    2
    50   102   101    1
    51    86    85    2
    52    98    96   ar
    53   101    99   ar
    54    84    85    1
    55    96    95    1
    56    96    97   ar
    57    99    97   ar
    58    95    92    1
    59    44    43    1
    60    74    75    1
    61    74    71    1
    62    91    92    1
    63    43    42   ar
    64    43    41   ar
    65    92    93    1
    66    31    30    1
    67    42    40   ar
    68    94    93    2
    69    60    58    1
    70    28    29    2
    71    28    27    1
    72    41    39   ar
    73    30    27    1
    74    30    32    1
    75    71    72    1
    76    71    70    1
    77    72    73    2
    78    64    63    2
    79    40    38   ar
    80    27    26    1
    81    39    38   ar
    82    58    59    1
    83    58    55    1
    84    38    37    1
    85    70    63   am
    86    63    62    1
    87    55    56    1
    88    55    54    1
    89    37    34    1
    90    61    62    1
    91    61    56   am
    92     7     5    1
    93    62    65    1
    94    56    57    2
    95     8     6    1
    96    33    34    1
    97    34    35    1
    98     5     6    1
    99     5     2    1
   100    53    52    1
   101    66    65    1
   102    66    67    1
   103    52    51    1
   104    36    35    2
   105     2     1    1
   106     2     3    1
   107    67    68   ar
   108    67    69   ar
   109    51    50    1
   110    50    49    1
   111    25    24    1
   112    13    10    1
   113    23    24   ar
   114    23    21   ar
   115     3     4    2
   116    24    22   ar
   117    47    46    1
   118    47    48    2
   119     9    10    1
   120    21    19   ar
   121    49    46    1
   122    46    45    1
   123    10    11    1
   124    22    20   ar
   125    19    20   ar
   126    19    18    1
   127    11    14   am
   128    11    12    2
   129    14    15    1
   130    18    15    1
   131    15    16    1
   132    16    17    2
