@<TRIPOS>MOLECULE
tmp/2bjuA00.pdb
 196 191 0 0 0
SMALL
GASTEIGER

@<TRIPOS>ATOM
      1  N          4.4900   66.1610   -0.5500 N.3    14  ILE14      -0.1245
      2  CA         3.6860   66.4170    0.6780 C.3    14  ILE14       0.1561
      3  C          2.9000   65.1980    1.1870 C.2    14  ILE14       0.2260
      4  O          2.6220   65.0900    2.3730 O.2    14  ILE14      -0.2867
      5  CB         2.6620   67.5620    0.4810 C.3    14  ILE14       0.0252
      6  CG1        3.3510   68.9060    0.2910 C.3    14  ILE14       0.0019
      7  CG2        1.7280   67.6530    1.7030 C.3    14  ILE14       0.0019
      8  CD1        2.3870   69.9940   -0.1270 C.3    14  ILE14       0.0001
      9  N        -11.3840   64.5040   15.2490 N.3    77  TYR77      -0.1227
     10  CA       -10.1370   64.7500   14.5280 C.3    77  TYR77       0.1736
     11  C         -9.2490   65.7370   15.3060 C.2    77  TYR77       0.2595
     12  O         -8.5120   65.3230   16.2090 O.2    77  TYR77      -0.2718
     13  CB       -10.3970   65.1700   13.0710 C.3    77  TYR77       0.0548
     14  CG        -9.1390   65.4040   12.2620 C.ar   77  TYR77      -0.0200
     15  CD1       -8.0990   64.4730   12.2590 C.ar   77  TYR77      -0.0009
     16  CD2       -8.9800   66.5730   11.5120 C.ar   77  TYR77      -0.0009
     17  CE1       -6.9310   64.6990   11.5310 C.ar   77  TYR77       0.0417
     18  CE2       -7.8250   66.8050   10.7740 C.ar   77  TYR77       0.0417
     19  CZ        -6.8010   65.8630   10.7880 C.ar   77  TYR77       0.1957
     20  OH        -5.6580   66.0920   10.0500 O.3    77  TYR77      -0.2866
     21  N         -9.3100   67.0240   14.9790 N.am   78  VAL78      -0.1980
     22  CA        -8.5980   68.0240   15.7890 C.3    78  VAL78       0.1595
     23  C         -9.5800   68.7780   16.7070 C.2    78  VAL78       0.2287
     24  O         -9.3750   68.8330   17.9250 O.2    78  VAL78      -0.2864
     25  CB        -7.6870   68.9510   14.9350 C.3    78  VAL78       0.0276
     26  CG1       -7.0080   70.0080   15.8040 C.3    78  VAL78       0.0022
     27  CG2       -6.6250   68.1270   14.2180 C.3    78  VAL78       0.0022
     28  N        -10.8000   71.7930    6.6080 N.3   113  PRO113     -0.2102
     29  CA       -10.8750   71.7000    5.1370 C.3   113  PRO113      0.1504
     30  C         -9.8530   70.7540    4.4770 C.2   113  PRO113      0.2576
     31  O         -9.7030   70.7620    3.2600 O.2   113  PRO113     -0.2718
     32  CB       -10.5780   73.1390    4.7080 C.3   113  PRO113      0.0282
     33  CG        -9.5810   73.5860    5.7280 C.3   113  PRO113      0.0208
     34  CD        -9.9810   72.9440    7.0410 C.3   113  PRO113      0.0893
     35  N         -9.1540   69.9730    5.2900 N.am  114  THR114     -0.1953
     36  CA        -8.1370   69.0360    4.8050 C.3   114  THR114      0.1897
     37  C         -8.6800   68.0760    3.7390 C.2   114  THR114      0.2313
     38  O         -8.0390   67.8800    2.7100 O.2   114  THR114     -0.2863
     39  CB        -7.6230   68.2360    5.9770 C.3   114  THR114      0.1794
     40  OG1       -7.1900   69.1460    6.9970 O.3   114  THR114     -0.2208
     41  CG2       -6.3650   67.4560    5.6090 C.3   114  THR114      0.0378
     42  N         -9.5360   69.8980    0.3850 N.3   117  ALA117     -0.1245
     43  CA        -8.3200   70.4440   -0.2150 C.3   117  ALA117      0.1562
     44  C         -7.4340   69.4060   -0.8950 C.2   117  ALA117      0.2260
     45  O         -6.6360   69.7300   -1.7810 O.2   117  ALA117     -0.2867
     46  CB        -7.5290   71.2070    0.8360 C.3   117  ALA117      0.0290
     47  N          0.9250   51.5460   17.4380 N.3   192  TYR192     -0.1241
     48  CA         1.6210   52.0980   16.2680 C.3   192  TYR192      0.1605
     49  C          2.7920   51.1750   15.9560 C.2   192  TYR192      0.2264
     50  O          3.1090   50.2600   16.7280 O.2   192  TYR192     -0.2867
     51  CB         2.1660   53.4860   16.5720 C.3   192  TYR192      0.0534
     52  CG         1.0900   54.4600   16.8940 C.ar  192  TYR192     -0.0201
     53  CD1        0.7850   54.7550   18.2140 C.ar  192  TYR192     -0.0009
     54  CD2        0.3690   55.0860   15.8840 C.ar  192  TYR192     -0.0009
     55  CE1       -0.2230   55.6560   18.5250 C.ar  192  TYR192      0.0417
     56  CE2       -0.6440   55.9960   16.1830 C.ar  192  TYR192      0.0417
     57  CZ        -0.9400   56.2530   17.5120 C.ar  192  TYR192      0.1957
     58  OH        -1.9250   57.1690   17.8450 O.3   192  TYR192     -0.2866
     59  N          1.6090   58.1890    7.2660 N.3   216  GLY216     -0.1210
     60  CA         0.5710   59.2100    7.1410 C.3   216  GLY216      0.1956
     61  C          0.9460   60.5930    7.6230 C.2   216  GLY216      0.2613
     62  O          0.1120   61.5170    7.5800 O.2   216  GLY216     -0.2717
     63  N          2.1640   60.7410    8.1390 N.am  217  THR217     -0.1938
     64  CA         2.6200   62.0500    8.5840 C.3   217  THR217      0.2028
     65  C          3.6850   62.5540    7.6150 C.2   217  THR217      0.2643
     66  O          4.6610   61.8550    7.3330 O.2   217  THR217     -0.2714
     67  CB         3.1550   61.9710   10.0110 C.3   217  THR217      0.1808
     68  OG1        2.0540   61.7410   10.9010 O.3   217  THR217     -0.2208
     69  CG2        3.7420   63.3410   10.4510 C.3   217  THR217      0.0379
     70  N          3.5210   63.7470    7.0570 N.am  218  SER218     -0.1935
     71  CA         4.4830   64.1330    6.0320 C.3   218  SER218      0.2055
     72  C          5.7710   64.7600    6.5430 C.2   218  SER218      0.2642
     73  O          6.6520   65.0480    5.7340 O.2   218  SER218     -0.2714
     74  CB         3.8500   65.0050    4.9700 C.3   218  SER218      0.2130
     75  OG         3.3070   66.1170    5.5890 O.3   218  SER218     -0.2179
     76  N          5.8760   64.9400    7.8630 N.am  219  ALA219     -0.1977
     77  CA         7.0120   65.6030    8.4870 C.3   219  ALA219      0.1597
     78  C          7.7410   64.6490    9.4190 C.2   219  ALA219      0.2287
     79  O          7.2520   63.5410    9.7020 O.2   219  ALA219     -0.2864
     80  CB         6.4850   66.7970    9.2840 C.3   219  ALA219      0.0319
     81  N          8.4030   64.6700   13.3040 N.3   221  THR221     -0.1218
     82  CA         8.0230   65.4290   14.5070 C.3   221  THR221      0.1862
     83  C          8.9700   65.1310   15.6430 C.2   221  THR221      0.2287
     84  O          9.4700   64.0060   15.7900 O.2   221  THR221     -0.2866
     85  CB         6.5350   65.2550   14.9770 C.3   221  THR221      0.1770
     86  OG1        6.3460   64.0010   15.6630 O.3   221  THR221     -0.2211
     87  CG2        5.5490   65.2580   13.8070 C.3   221  THR221      0.0375
     88  N          3.6050   77.7410   12.2200 N.3   243  PRO243     -0.2102
     89  CA         4.3990   76.7590   12.9510 C.3   243  PRO243      0.1504
     90  C          5.5300   76.1990   12.0840 C.2   243  PRO243      0.2575
     91  O          6.0160   75.1020   12.3550 O.2   243  PRO243     -0.2718
     92  CB         3.3640   75.6880   13.3010 C.3   243  PRO243      0.0282
     93  CG         2.3980   75.7160   12.1480 C.3   243  PRO243      0.0208
     94  CD         2.4680   77.1070   11.5230 C.3   243  PRO243      0.0893
     95  N          5.9490   76.9680   11.0750 N.am  244  PHE244     -0.1977
     96  CA         6.9640   76.5470   10.1110 C.3   244  PHE244      0.1639
     97  C          8.3040   77.2350   10.3180 C.2   244  PHE244      0.2290
     98  O          8.3690   78.3660   10.8180 O.2   244  PHE244     -0.2864
     99  CB         6.5060   76.8010    8.6680 C.3   244  PHE244      0.0560
    100  CG         5.1580   76.2450    8.3520 C.ar  244  PHE244     -0.0200
    101  CD1        4.1560   77.0750    7.8700 C.ar  244  PHE244     -0.0042
    102  CD2        4.8890   74.8940    8.5340 C.ar  244  PHE244     -0.0042
    103  CE1        2.8980   76.5680    7.5740 C.ar  244  PHE244     -0.0003
    104  CE2        3.6350   74.3770    8.2410 C.ar  244  PHE244     -0.0003
    105  CZ         2.6400   75.2180    7.7600 C.ar  244  PHE244     -0.0000
    106  N         12.5230   71.2030    2.1290 N.3   275  GLN275     -0.1245
    107  CA        11.5520   71.3570    1.0510 C.3   275  GLN275      0.1566
    108  C         11.7680   72.7220    0.3820 C.2   275  GLN275      0.2260
    109  O         11.6420   73.7580    1.0380 O.2   275  GLN275     -0.2867
    110  CB        10.1620   71.2940    1.6740 C.3   275  GLN275      0.0367
    111  CG         8.9860   71.3940    0.7360 C.3   275  GLN275      0.0905
    112  CD         8.5210   70.0250    0.2720 C.2   275  GLN275      0.2608
    113  OE1        8.7780   69.6590   -0.8670 O.2   275  GLN275     -0.2717
    114  NE2        7.8640   69.2610    1.1540 N.am  275  GLN275     -0.0878
    115  N         11.9400   75.1970    3.3920 N.3   286  MET286     -0.1230
    116  CA        11.2200   74.9930    4.6430 C.3   286  MET286      0.1702
    117  C         11.7400   73.6900    5.2410 C.2   286  MET286      0.2592
    118  O         12.1410   72.7860    4.5090 O.2   286  MET286     -0.2718
    119  CB         9.7180   74.9080    4.3710 C.3   286  MET286      0.0401
    120  CG         8.8320   74.6340    5.5850 C.3   286  MET286      0.0596
    121  SD         7.0640   74.5050    5.1350 S.3   286  MET286     -0.1393
    122  CE         7.1880   73.8520    3.4510 C.3   286  MET286      0.0692
    123  N         11.7650   73.6250    6.5600 N.am  287  LEU287     -0.1966
    124  CA        12.1120   72.3980    7.2800 C.3   287  LEU287      0.1728
    125  C         10.8420   71.5660    7.4220 C.2   287  LEU287      0.2616
    126  O          9.7930   72.0610    7.8460 O.2   287  LEU287     -0.2715
    127  CB        12.6750   72.7380    8.6690 C.3   287  LEU287      0.0311
    128  CG        14.1420   73.1820    8.7580 C.3   287  LEU287      0.0022
    129  CD1       14.3770   74.5690    8.1700 C.3   287  LEU287      0.0001
    130  CD2       14.6270   73.1540   10.1980 C.3   287  LEU287      0.0001
    131  N         10.9390   70.3120    7.0180 N.am  288  ASN288     -0.1958
    132  CA         9.8490   69.3480    7.1090 C.3   288  ASN288      0.1819
    133  C          9.8570   68.7380    8.5230 C.2   288  ASN288      0.2621
    134  O          9.8690   67.5070    8.6800 O.2   288  ASN288     -0.2715
    135  CB        10.1080   68.2420    6.0910 C.3   288  ASN288      0.1195
    136  CG         9.0780   68.1650    5.0140 C.2   288  ASN288      0.2630
    137  OD1        9.3860   68.3630    3.8160 O.2   288  ASN288     -0.2716
    138  ND2        7.8560   67.8100    5.3990 N.am  288  ASN288     -0.0877
    139  N          9.8820   69.6140    9.5340 N.am  289  ILE289     -0.1963
    140  CA        10.0250   69.2540   10.9440 C.3   289  ILE289      0.1727
    141  C          9.0020   70.0700   11.7410 C.2   289  ILE289      0.2616
    142  O          8.8480   71.2730   11.4960 O.2   289  ILE289     -0.2715
    143  CB        11.4820   69.5420   11.4440 C.3   289  ILE289      0.0290
    144  CG1       12.5310   68.8440   10.5550 C.3   289  ILE289      0.0022
    145  CG2       11.6490   69.0620   12.8800 C.3   289  ILE289      0.0023
    146  CD1       14.0090   69.2190   10.8380 C.3   289  ILE289      0.0001
    147  N          8.3150   69.4070   12.6790 N.am  290  ILE290     -0.1977
    148  CA         7.2530   70.0000   13.5070 C.3   290  ILE290      0.1596
    149  C          7.5570   69.6300   14.9530 C.2   290  ILE290      0.2287
    150  O          7.9040   68.4810   15.2490 O.2   290  ILE290     -0.2864
    151  CB         5.8540   69.3740   13.1320 C.3   290  ILE290      0.0276
    152  CG1        5.4370   69.7700   11.7080 C.3   290  ILE290      0.0022
    153  CG2        4.7740   69.7410   14.1670 C.3   290  ILE290      0.0022
    154  CD1        4.2780   68.9200   11.1190 C.3   290  ILE290      0.0001
    155  N          6.1710   68.5960   18.4490 N.3   292  LEU292     -0.1231
    156  CA         4.9800   67.9100   18.9480 C.3   292  LEU292      0.1693
    157  C          5.2980   67.0970   20.2030 C.2   292  LEU292      0.2592
    158  O          6.1990   66.2610   20.1960 O.2   292  LEU292     -0.2718
    159  CB         4.3870   66.9950   17.8670 C.3   292  LEU292      0.0284
    160  CG         3.0690   66.2540   18.1110 C.3   292  LEU292      0.0019
    161  CD1        1.9330   67.2190   18.4530 C.3   292  LEU292      0.0001
    162  CD2        2.7180   65.4410   16.8780 C.3   292  LEU292      0.0001
    163  N          4.5630   67.3750   21.2810 N.am  293  ASP293     -0.1960
    164  CA         4.7440   66.6540   22.5440 C.3   293  ASP293      0.1840
    165  C          3.7050   65.5620   22.7250 C.2   293  ASP293      0.2622
    166  O          2.5220   65.7600   22.4440 O.2   293  ASP293     -0.2715
    167  CB         4.7000   67.6310   23.7270 C.3   293  ASP293      0.1450
    168  CG         5.9000   68.5170   23.7610 C.2   293  ASP293      0.3671
    169  OD1        5.7650   69.7090   24.1270 O.co2 293  ASP293     -0.2456
    170  OD2        7.0300   68.1220   23.4400 O.co2 293  ASP293     -0.2456
    171  N          4.1690   64.3990   23.1630 N.am  294  PHE294     -0.1960
    172  CA         3.3260   63.2570   23.4630 C.3   294  PHE294      0.1756
    173  C          3.4780   62.9590   24.9500 C.2   294  PHE294      0.2461
    174  O          4.4190   63.4400   25.5450 O.2   294  PHE294     -0.2730
    175  CB         3.8210   62.0340   22.6770 C.3   294  PHE294      0.0574
    176  CG         3.4050   62.0160   21.2350 C.ar  294  PHE294     -0.0200
    177  CD1        2.3060   61.2670   20.8350 C.ar  294  PHE294     -0.0042
    178  CD2        4.1260   62.7270   20.2830 C.ar  294  PHE294     -0.0042
    179  CE1        1.9110   61.2510   19.4930 C.ar  294  PHE294     -0.0003
    180  CE2        3.7450   62.7180   18.9450 C.ar  294  PHE294     -0.0003
    181  CZ         2.6340   61.9760   18.5540 C.ar  294  PHE294     -0.0000
    182  N          2.5740   62.1670   25.5390 N.am  295  PRO295     -0.2727
    183  CA         2.6980   61.7910   26.9600 C.3   295  PRO295      0.1402
    184  C          4.0120   61.0810   27.3080 C.2   295  PRO295      0.2269
    185  O          4.4430   61.1230   28.4680 O.2   295  PRO295     -0.2865
    186  CB         1.5040   60.8560   27.1820 C.3   295  PRO295      0.0296
    187  CG         0.4900   61.2680   26.1270 C.3   295  PRO295      0.0237
    188  CD         1.3330   61.6360   24.9320 C.3   295  PRO295      0.0939
    189  N          8.0590   61.2820   15.5790 N.3   300  ILE300     -0.1245
    190  CA         7.4080   60.6200   14.4480 C.3   300  ILE300      0.1561
    191  C          8.3630   60.6480   13.2530 C.2   300  ILE300      0.2260
    192  O          8.7760   61.7130   12.7460 O.2   300  ILE300     -0.2867
    193  CB         6.0490   61.2810   14.0820 C.3   300  ILE300      0.0252
    194  CG1        5.0140   61.1030   15.2070 C.3   300  ILE300      0.0019
    195  CG2        5.5730   60.6890   12.7110 C.3   300  ILE300      0.0019
    196  CD1        3.7000   61.8620   14.9490 C.3   300  ILE300      0.0001
@<TRIPOS>BOND
     1    45    44    2
     2    44    43    1
     3   113   112    2
     4     1     2    1
     5    43    42    1
     6    43    46    1
     7     8     6    1
     8   112   111    1
     9   112   114   am
    10     6     5    1
    11   108   109    2
    12   108   107    1
    13     5     2    1
    14     5     7    1
    15     2     3    1
    16   111   110    1
    17   107   110    1
    18   107   106    1
    19     3     4    2
    20    38    37    2
    21    31    30    2
    22   115   116    1
    23   122   121    1
    24    37    36    1
    25   137   136    2
    26   119   116    1
    27   119   120    1
    28    30    29    1
    29    30    35   am
    30   118   117    2
    31   116   117    1
    32    32    29    1
    33    32    33    1
    34    36    35    1
    35    36    39    1
    36    74    75    1
    37    74    71    1
    38   136   138   am
    39   136   135    1
    40   121   120    1
    41    29    28    1
    42   117   123   am
    43    41    39    1
    44    33    34    1
    45    73    72    2
    46    39    40    1
    47    71    72    1
    48    71    70    1
    49   135   132    1
    50    72    76   am
    51   123   124    1
    52    28    34    1
    53   131   132    1
    54   131   125   am
    55    70    65   am
    56   132   133    1
    57    60    59    1
    58    60    61    1
    59   124   125    1
    60   124   127    1
    61    66    65    2
    62   125   126    2
    63   103   105   ar
    64   103   101   ar
    65    62    61    2
    66    65    64    1
    67    61    63   am
    68   105   104   ar
    69    76    77    1
    70   101   100   ar
    71    63    64    1
    72   129   128    1
    73   104   102   ar
    74   100   102   ar
    75   100    99    1
    76    77    80    1
    77    77    78    1
    78   133   134    2
    79   133   139   am
    80    64    67    1
    81    99    96    1
    82   127   128    1
    83   128   130    1
    84    78    79    2
    85   139   140    1
    86    67    69    1
    87    67    68    1
    88    20    19    1
    89    96    97    1
    90    96    95    1
    91    97    98    2
    92   144   146    1
    93   144   143    1
    94    18    19   ar
    95    18    16   ar
    96    19    17   ar
    97   140   143    1
    98   140   141    1
    99    95    90   am
   100   154   152    1
   101   143   145    1
   102   142   141    2
   103    16    14   ar
   104    94    93    1
   105    94    88    1
   106    17    15   ar
   107   152   151    1
   108   141   147   am
   109    90    91    2
   110    90    89    1
   111    93    92    1
   112    88    89    1
   113    15    14   ar
   114    14    13    1
   115   147   148    1
   116   195   193    1
   117   192   191    2
   118    89    92    1
   119    13    10    1
   120   151   148    1
   121   151   153    1
   122   191   190    1
   123    81    82    1
   124   148   149    1
   125    87    85    1
   126   193   190    1
   127   193   194    1
   128    27    25    1
   129   190   189    1
   130    82    85    1
   131    82    83    1
   132    10     9    1
   133    10    11    1
   134    25    22    1
   135    25    26    1
   136   196   194    1
   137   149   150    2
   138    85    86    1
   139    21    11   am
   140    21    22    1
   141    11    12    2
   142    83    84    2
   143    22    23    1
   144    54    56   ar
   145    54    52   ar
   146    49    48    1
   147    49    50    2
   148    56    57   ar
   149    48    51    1
   150    48    47    1
   151    51    52    1
   152    23    24    2
   153   162   160    1
   154    52    53   ar
   155    57    58    1
   156    57    55   ar
   157   159   160    1
   158   159   156    1
   159   160   161    1
   160    53    55   ar
   161   155   156    1
   162   181   180   ar
   163   181   179   ar
   164   180   178   ar
   165   156   157    1
   166   179   177   ar
   167   158   157    2
   168   157   163   am
   169   178   176   ar
   170   177   176   ar
   171   176   175    1
   172   163   164    1
   173   166   165    2
   174   164   165    1
   175   164   167    1
   176   175   172    1
   177   165   171   am
   178   171   172    1
   179   170   168   ar
   180   172   173    1
   181   167   168    1
   182   168   169   ar
   183   188   182    1
   184   188   187    1
   185   173   182   am
   186   173   174    2
   187   182   183    1
   188   187   186    1
   189   183   186    1
   190   183   184    1
   191   184   185    2
