@<TRIPOS>MOLECULE
tmp/2bk3A01.pdb
 177 171 0 0 0
SMALL
GASTEIGER

@<TRIPOS>ATOM
      1  N         60.4450  151.6580   22.8260 N.3    58  TYR58      -0.1241
      2  CA        60.9010  152.0660   24.1720 C.3    58  TYR58       0.1605
      3  C         61.2980  150.9110   25.0780 C.2    58  TYR58       0.2264
      4  O         60.6930  149.8330   25.0370 O.2    58  TYR58      -0.2867
      5  CB        59.8550  152.9570   24.8700 C.3    58  TYR58       0.0534
      6  CG        59.4530  154.1150   23.9820 C.ar   58  TYR58      -0.0201
      7  CD1       58.2520  154.0970   23.2800 C.ar   58  TYR58      -0.0009
      8  CD2       60.3090  155.2120   23.8120 C.ar   58  TYR58      -0.0009
      9  CE1       57.9010  155.1390   22.4280 C.ar   58  TYR58       0.0417
     10  CE2       59.9610  156.2660   22.9800 C.ar   58  TYR58       0.0417
     11  CZ        58.7590  156.2160   22.2760 C.ar   58  TYR58       0.1957
     12  OH        58.4200  157.2580   21.4420 O.3    58  TYR58      -0.2866
     13  N         55.9560  168.6250   30.4240 N.3    86  LEU86      -0.1245
     14  CA        54.9540  167.8180   29.7490 C.3    86  LEU86       0.1561
     15  C         53.6870  168.6640   29.6270 C.2    86  LEU86       0.2260
     16  O         53.5620  169.6720   30.3180 O.2    86  LEU86      -0.2867
     17  CB        54.6480  166.5880   30.6080 C.3    86  LEU86       0.0270
     18  CG        55.7150  165.4880   30.7950 C.3    86  LEU86       0.0019
     19  CD1       56.9460  165.9420   31.6210 C.3    86  LEU86       0.0001
     20  CD2       55.0630  164.2880   31.4420 C.3    86  LEU86       0.0001
     21  N         55.3830  162.4720   36.6950 N.3   100  PRO100     -0.2116
     22  CA        54.7000  161.4970   35.8330 C.3   100  PRO100      0.1372
     23  C         53.1830  161.6800   35.6930 C.2   100  PRO100      0.2244
     24  O         52.6690  161.4170   34.5900 O.2   100  PRO100     -0.2868
     25  CB        55.0220  160.1540   36.4920 C.3   100  PRO100      0.0268
     26  CG        55.3110  160.4780   37.9270 C.3   100  PRO100      0.0207
     27  CD        55.9130  161.8540   37.9270 C.3   100  PRO100      0.0892
     28  N         49.5940  163.8270   35.6670 N.3   102  PRO102     -0.2116
     29  CA        49.0220  165.1590   35.4570 C.3   102  PRO102      0.1372
     30  C         48.3280  165.6160   36.7450 C.2   102  PRO102      0.2244
     31  O         47.4610  164.8970   37.2680 O.2   102  PRO102     -0.2868
     32  CB        48.0050  164.9380   34.3320 C.3   102  PRO102      0.0268
     33  CG        48.4320  163.6790   33.6880 C.3   102  PRO102      0.0207
     34  CD        48.9540  162.8150   34.8050 C.3   102  PRO102      0.0892
     35  N         44.4000  155.8950   40.9980 N.3   117  TRP117     -0.1241
     36  CA        45.7190  155.2960   40.7700 C.3   117  TRP117      0.1605
     37  C         46.1020  154.3290   41.9050 C.2   117  TRP117      0.2264
     38  O         46.6350  153.2340   41.6640 O.2   117  TRP117     -0.2867
     39  CB        46.7890  156.3840   40.6080 C.3   117  TRP117      0.0550
     40  CG        46.5960  157.3250   39.4170 C.ar  117  TRP117      0.0003
     41  CD1       46.2630  158.6570   39.4640 C.ar  117  TRP117      0.0946
     42  CD2       46.7560  157.0080   38.0190 C.ar  117  TRP117      0.0152
     43  NE1       46.1940  159.1760   38.1920 N.ar  117  TRP117     -0.2442
     44  CE2       46.4920  158.1910   37.2850 C.ar  117  TRP117      0.0810
     45  CE3       47.0900  155.8400   37.3120 C.ar  117  TRP117      0.0012
     46  CZ2       46.5540  158.2430   35.8880 C.ar  117  TRP117      0.0191
     47  CZ3       47.1590  155.8930   35.9140 C.ar  117  TRP117      0.0001
     48  CH2       46.8930  157.0900   35.2190 C.ar  117  TRP117      0.0015
     49  N         40.6640  160.7780   32.3980 N.3   162  LEU162     -0.1245
     50  CA        42.0940  160.4810   32.4260 C.3   162  LEU162      0.1561
     51  C         42.3130  158.9650   32.4890 C.2   162  LEU162      0.2260
     52  O         43.1720  158.4190   31.7920 O.2   162  LEU162     -0.2867
     53  CB        42.7840  161.2020   33.5980 C.3   162  LEU162      0.0270
     54  CG        44.3150  161.0530   33.6260 C.3   162  LEU162      0.0019
     55  CD1       44.9460  161.5170   32.3110 C.3   162  LEU162      0.0001
     56  CD2       44.9090  161.8090   34.8050 C.3   162  LEU162      0.0001
     57  N         41.7230  157.3920   29.0700 N.3   165  LEU165     -0.1231
     58  CA        42.9110  157.6370   28.2510 C.3   165  LEU165      0.1693
     59  C         44.0300  156.6440   28.5950 C.2   165  LEU165      0.2592
     60  O         44.6450  156.0560   27.7020 O.2   165  LEU165     -0.2718
     61  CB        43.3970  159.0840   28.4380 C.3   165  LEU165      0.0284
     62  CG        44.4530  159.6260   27.4610 C.3   165  LEU165      0.0019
     63  CD1       44.3060  161.1400   27.3340 C.3   165  LEU165      0.0001
     64  CD2       45.8780  159.2690   27.9160 C.3   165  LEU165      0.0001
     65  N         44.2750  156.4650   29.8930 N.am  166  PHE166     -0.1976
     66  CA        45.2910  155.5330   30.4170 C.3   166  PHE166      0.1639
     67  C         45.1020  154.1180   29.8670 C.2   166  PHE166      0.2290
     68  O         46.0580  153.4840   29.3980 O.2   166  PHE166     -0.2864
     69  CB        45.2340  155.5480   31.9500 C.3   166  PHE166      0.0560
     70  CG        46.0450  154.4740   32.6290 C.ar  166  PHE166     -0.0200
     71  CD1       47.4320  154.3830   32.4450 C.ar  166  PHE166     -0.0042
     72  CD2       45.4270  153.5750   33.4880 C.ar  166  PHE166     -0.0042
     73  CE1       48.1710  153.3960   33.1000 C.ar  166  PHE166     -0.0003
     74  CE2       46.1670  152.5800   34.1510 C.ar  166  PHE166     -0.0003
     75  CZ        47.5420  152.4910   33.9480 C.ar  166  PHE166     -0.0000
     76  N         45.6660  154.0260   25.9330 N.3   169  LEU169     -0.1231
     77  CA        47.1000  154.1040   25.6790 C.3   169  LEU169      0.1693
     78  C         47.9070  152.8700   26.1010 C.2   169  LEU169      0.2592
     79  O         48.8620  152.4960   25.4140 O.2   169  LEU169     -0.2718
     80  CB        47.6620  155.3300   26.3910 C.3   169  LEU169      0.0284
     81  CG        49.0990  155.7550   26.1010 C.3   169  LEU169      0.0019
     82  CD1       49.3810  155.8520   24.6080 C.3   169  LEU169      0.0001
     83  CD2       49.3310  157.1020   26.7850 C.3   169  LEU169      0.0001
     84  N         47.5530  152.2610   27.2310 N.am  170  CYS170     -0.1970
     85  CA        48.2990  151.1020   27.7360 C.3   170  CYS170      0.1712
     86  C         48.1200  149.8700   26.8570 C.2   170  CYS170      0.2296
     87  O         49.0740  149.1040   26.6400 O.2   170  CYS170     -0.2864
     88  CB        47.8400  150.7410   29.1490 C.3   170  CYS170      0.0983
     89  SG        48.6640  151.6470   30.4570 S.3   170  CYS170     -0.0798
     90  N         54.6050  151.9750   34.7110 N.3   196  ILE196     -0.1231
     91  CA        54.1060  151.8420   33.3460 C.3   196  ILE196      0.1692
     92  C         53.9050  153.1830   32.6220 C.2   196  ILE196      0.2591
     93  O         54.0760  153.2500   31.4100 O.2   196  ILE196     -0.2718
     94  CB        52.8310  150.9320   33.2920 C.3   196  ILE196      0.0266
     95  CG1       52.7170  150.2300   31.9200 C.3   196  ILE196      0.0019
     96  CG2       51.5840  151.7090   33.6820 C.3   196  ILE196      0.0020
     97  CD1       51.4840  149.2650   31.8050 C.3   196  ILE196      0.0001
     98  N         53.5700  154.2460   33.3540 N.am  197  ILE197     -0.1980
     99  CA        53.2750  155.5390   32.7260 C.3   197  ILE197      0.1595
    100  C         54.4660  156.4630   32.5980 C.2   197  ILE197      0.2287
    101  O         54.3920  157.4760   31.8970 O.2   197  ILE197     -0.2864
    102  CB        52.1170  156.2870   33.4460 C.3   197  ILE197      0.0276
    103  CG1       52.5690  156.8490   34.8060 C.3   197  ILE197      0.0022
    104  CG2       50.8930  155.3910   33.5700 C.3   197  ILE197      0.0022
    105  CD1       51.7300  158.0080   35.3210 C.3   197  ILE197      0.0001
    106  N         59.0840  154.1380   29.3090 N.3   204  GLN204     -0.1245
    107  CA        59.4250  154.9400   28.1310 C.3   204  GLN204      0.1566
    108  C         60.7480  155.7100   28.2740 C.2   204  GLN204      0.2260
    109  O         60.9900  156.6650   27.5390 O.2   204  GLN204     -0.2867
    110  CB        58.2830  155.9020   27.7730 C.3   204  GLN204      0.0367
    111  CG        57.0420  155.2170   27.2030 C.3   204  GLN204      0.0905
    112  CD        56.3300  154.3150   28.2140 C.2   204  GLN204      0.2608
    113  OE1       56.2650  153.0910   28.0320 O.2   204  GLN204     -0.2717
    114  NE2       55.7690  154.9170   29.2540 N.am  204  GLN204     -0.0878
    115  N         49.6480  164.7940   26.5570 N.3   314  ILE314     -0.1245
    116  CA        48.5960  163.8710   26.9340 C.3   314  ILE314      0.1561
    117  C         47.2980  164.5720   26.5850 C.2   314  ILE314      0.2260
    118  O         46.9570  165.5800   27.1910 O.2   314  ILE314     -0.2867
    119  CB        48.6780  163.5360   28.4470 C.3   314  ILE314      0.0252
    120  CG1       49.9810  162.7930   28.7510 C.3   314  ILE314      0.0019
    121  CG2       47.4830  162.6940   28.9010 C.3   314  ILE314      0.0019
    122  CD1       50.5940  163.1550   30.1020 C.3   314  ILE314      0.0001
    123  N         48.3990  160.6950   22.6370 N.3   324  TYR324     -0.1241
    124  CA        49.6980  160.7360   23.3160 C.3   324  TYR324      0.1605
    125  C         50.8540  160.9170   22.3560 C.2   324  TYR324      0.2264
    126  O         50.8850  160.2980   21.2940 O.2   324  TYR324     -0.2867
    127  CB        49.8890  159.4480   24.1160 C.3   324  TYR324      0.0534
    128  CG        51.0480  159.4490   25.1090 C.ar  324  TYR324     -0.0201
    129  CD1       50.9940  160.2030   26.2890 C.ar  324  TYR324     -0.0009
    130  CD2       52.1740  158.6580   24.8810 C.ar  324  TYR324     -0.0009
    131  CE1       52.0520  160.1830   27.2170 C.ar  324  TYR324      0.0417
    132  CE2       53.2420  158.6320   25.8040 C.ar  324  TYR324      0.0417
    133  CZ        53.1610  159.3970   26.9630 C.ar  324  TYR324      0.1957
    134  OH        54.1920  159.3720   27.8730 O.3   324  TYR324     -0.2866
    135  N         55.3770  161.7130   22.1520 N.3   326  LEU326     -0.1245
    136  CA        56.7100  161.8960   22.7250 C.3   326  LEU326      0.1561
    137  C         57.6460  162.5330   21.6860 C.2   326  LEU326      0.2260
    138  O         57.4890  162.3410   20.4760 O.2   326  LEU326     -0.2867
    139  CB        57.2890  160.5560   23.1980 C.3   326  LEU326      0.0270
    140  CG        56.6100  159.8640   24.3890 C.3   326  LEU326      0.0019
    141  CD1       56.9860  158.3990   24.4410 C.3   326  LEU326      0.0001
    142  CD2       56.9570  160.5640   25.7120 C.3   326  LEU326      0.0001
    143  N         50.4720  158.3720   18.7930 N.3   341  PHE341     -0.1241
    144  CA        49.6660  157.1830   18.5420 C.3   341  PHE341      0.1605
    145  C         48.2100  157.5610   18.2740 C.2   341  PHE341      0.2264
    146  O         47.6400  158.3470   19.0230 O.2   341  PHE341     -0.2867
    147  CB        49.6430  156.2670   19.7680 C.3   341  PHE341      0.0534
    148  CG        50.9600  155.6380   20.1140 C.ar  341  PHE341     -0.0203
    149  CD1       51.4900  155.7950   21.3910 C.ar  341  PHE341     -0.0042
    150  CD2       51.6550  154.8640   19.1940 C.ar  341  PHE341     -0.0042
    151  CE1       52.7150  155.1990   21.7390 C.ar  341  PHE341     -0.0003
    152  CE2       52.8770  154.2680   19.5390 C.ar  341  PHE341     -0.0003
    153  CZ        53.4010  154.4390   20.8070 C.ar  341  PHE341     -0.0000
    154  N         49.6080  147.0870   20.4660 N.3   396  TYR396     -0.1241
    155  CA        50.9380  146.4900   20.7380 C.3   396  TYR396      0.1605
    156  C         50.8730  144.9910   20.9710 C.2   396  TYR396      0.2264
    157  O         51.8250  144.2630   20.6840 O.2   396  TYR396     -0.2867
    158  CB        51.5670  147.1040   21.9980 C.3   396  TYR396      0.0534
    159  CG        51.2060  148.5440   22.2480 C.ar  396  TYR396     -0.0201
    160  CD1       51.4370  149.5230   21.2710 C.ar  396  TYR396     -0.0009
    161  CD2       50.6490  148.9400   23.4680 C.ar  396  TYR396     -0.0009
    162  CE1       51.1100  150.8490   21.4910 C.ar  396  TYR396      0.0417
    163  CE2       50.3190  150.2690   23.6950 C.ar  396  TYR396      0.0417
    164  CZ        50.5560  151.2150   22.6980 C.ar  396  TYR396      0.1957
    165  OH        50.2280  152.5350   22.9090 O.3   396  TYR396     -0.2866
    166  N         55.5190  143.6080   25.8340 N.3   433  TYR433     -0.1241
    167  CA        56.6930  144.4280   25.5320 C.3   433  TYR433      0.1605
    168  C         57.8170  143.5570   24.9730 C.2   433  TYR433      0.2264
    169  O         57.7960  142.3320   25.1220 O.2   433  TYR433     -0.2867
    170  CB        57.1910  145.1140   26.8280 C.3   433  TYR433      0.0534
    171  CG        56.2640  146.1980   27.3740 C.ar  433  TYR433     -0.0201
    172  CD1       55.0480  145.8700   27.9700 C.ar  433  TYR433     -0.0009
    173  CD2       56.6100  147.5500   27.2870 C.ar  433  TYR433     -0.0009
    174  CE1       54.1880  146.8650   28.4580 C.ar  433  TYR433      0.0417
    175  CE2       55.7750  148.5450   27.7820 C.ar  433  TYR433      0.0417
    176  CZ        54.5660  148.1940   28.3590 C.ar  433  TYR433      0.1957
    177  OH        53.7430  149.1720   28.8310 O.3   433  TYR433     -0.2866
@<TRIPOS>BOND
     1   145   144    1
     2   145   146    2
     3   144   143    1
     4   144   147    1
     5   150   152   ar
     6   150   148   ar
     7   152   153   ar
     8   147   148    1
     9   148   149   ar
    10   154   155    1
    11   138   137    2
    12   157   156    2
    13   155   156    1
    14   155   158    1
    15   153   151   ar
    16   160   162   ar
    17   160   159   ar
    18   126   125    2
    19   149   151   ar
    20    12    11    1
    21   162   164   ar
    22   137   136    1
    23   158   159    1
    24   135   136    1
    25   159   161   ar
    26    11     9   ar
    27    11    10   ar
    28   125   124    1
    29     9     7   ar
    30   123   124    1
    31   164   165    1
    32   164   163   ar
    33   136   139    1
    34     1     2    1
    35    10     8   ar
    36   139   140    1
    37     7     6   ar
    38   124   127    1
    39   161   163   ar
    40     8     6   ar
    41     6     5    1
    42   127   128    1
    43     2     5    1
    44     2     3    1
    45   140   141    1
    46   140   142    1
    47    82    81    1
    48   130   128   ar
    49   130   132   ar
    50   168   169    2
    51   168   167    1
    52     4     3    2
    53   128   129   ar
    54    79    78    2
    55   167   166    1
    56   167   170    1
    57    77    76    1
    58    77    78    1
    59    77    80    1
    60   132   133   ar
    61    81    80    1
    62    81    83    1
    63    78    84   am
    64   129   131   ar
    65   115   116    1
    66   117   116    1
    67   117   118    2
    68    87    86    2
    69   170   171    1
    70    86    85    1
    71   116   119    1
    72   133   131   ar
    73   133   134    1
    74   111   110    1
    75   111   112    1
    76    84    85    1
    77   173   171   ar
    78   173   175   ar
    79    63    62    1
    80   171   172   ar
    81    62    64    1
    82    62    61    1
    83   109   108    2
    84    60    59    2
    85    85    88    1
    86   110   107    1
    87   175   176   ar
    88   172   174   ar
    89   113   112    2
    90   107   108    1
    91   107   106    1
    92   112   114   am
    93    58    61    1
    94    58    59    1
    95    58    57    1
    96   176   174   ar
    97   176   177    1
    98   119   120    1
    99   119   121    1
   100    59    65   am
   101   120   122    1
   102    88    89    1
   103    68    67    2
   104    15    14    1
   105    15    16    2
   106    14    13    1
   107    14    17    1
   108    67    66    1
   109    65    66    1
   110    66    69    1
   111    17    18    1
   112    18    20    1
   113    18    19    1
   114    93    92    2
   115    52    51    2
   116    97    95    1
   117   101   100    2
   118    95    94    1
   119    69    70    1
   120    55    54    1
   121    49    50    1
   122    50    51    1
   123    50    53    1
   124    71    70   ar
   125    71    73   ar
   126   100    99    1
   127    92    91    1
   128    92    98   am
   129    70    72   ar
   130    99    98    1
   131    99   102    1
   132    73    75   ar
   133    94    91    1
   134    94    96    1
   135    91    90    1
   136   102   104    1
   137   102   103    1
   138    72    74   ar
   139    53    54    1
   140    54    56    1
   141    33    32    1
   142    33    34    1
   143    75    74   ar
   144    32    29    1
   145    24    23    2
   146    34    28    1
   147   103   105    1
   148    48    46   ar
   149    48    47   ar
   150    29    28    1
   151    29    30    1
   152    23    22    1
   153    22    25    1
   154    22    21    1
   155    46    44   ar
   156    47    45   ar
   157    25    26    1
   158    21    27    1
   159    30    31    2
   160    44    42   ar
   161    44    43   ar
   162    45    42   ar
   163    26    27    1
   164    42    40   ar
   165    43    41   ar
   166    40    41   ar
   167    40    39    1
   168    39    36    1
   169    36    35    1
   170    36    37    1
   171    38    37    2
