@<TRIPOS>MOLECULE
tmp/2bk9A00.pdb
 214 207 0 0 0
SMALL
GASTEIGER

@<TRIPOS>ATOM
      1  N         11.8050    0.6390    0.3430 N.3    31  PHE31      -0.1241
      2  CA        12.3580    1.4210    1.4390 C.3    31  PHE31       0.1605
      3  C         13.8740    1.2090    1.5440 C.2    31  PHE31       0.2264
      4  O         14.6330    2.1620    1.6110 O.2    31  PHE31      -0.2867
      5  CB        11.6190    1.0110    2.6830 C.3    31  PHE31       0.0534
      6  CG        12.0280    1.6880    3.9590 C.ar   31  PHE31      -0.0203
      7  CD1       11.9840    3.0720    4.1190 C.ar   31  PHE31      -0.0042
      8  CD2       12.3680    0.9230    5.0450 C.ar   31  PHE31      -0.0042
      9  CE1       12.2720    3.6580    5.3230 C.ar   31  PHE31      -0.0003
     10  CE2       12.6320    1.5130    6.2650 C.ar   31  PHE31      -0.0003
     11  CZ        12.5850    2.8910    6.3910 C.ar   31  PHE31      -0.0000
     12  N         18.5020    2.3720    6.5740 N.3    38  ASN38      -0.1240
     13  CA        17.5010    1.7840    7.4270 C.3    38  ASN38       0.1653
     14  C         17.7140    0.2730    7.6450 C.2    38  ASN38       0.2266
     15  O         17.2830   -0.2490    8.6500 O.2    38  ASN38      -0.2867
     16  CB        16.1160    2.0240    6.8550 C.3    38  ASN38       0.1155
     17  CG        15.7500    3.4870    6.8740 C.2    38  ASN38       0.2627
     18  OD1       15.5130    4.0530    7.9390 O.2    38  ASN38      -0.2716
     19  ND2       15.7470    4.1190    5.6930 N.am   38  ASN38      -0.0877
     20  N         19.1510   -1.0640   11.0550 N.3    41  LYS41      -0.1231
     21  CA        18.3540   -1.1740   12.2600 C.3    41  LYS41       0.1693
     22  C         17.8780   -2.6050   12.5160 C.2    41  LYS41       0.2592
     23  O         17.4400   -2.9060   13.6010 O.2    41  LYS41      -0.2718
     24  CB        17.1180   -0.2810   12.1540 C.3    41  LYS41       0.0285
     25  CG        17.3860    1.1830   12.0220 C.3    41  LYS41       0.0035
     26  CD        17.9450    1.8200   13.2230 C.3    41  LYS41       0.0206
     27  CE        17.9940    3.3200   13.1810 C.3    41  LYS41       0.1093
     28  NZ        18.5490    3.8940   14.4350 N.3    41  LYS41      -0.1314
     29  N         17.9340   -3.4600   11.4930 N.am   42  PHE42      -0.1963
     30  CA        17.3310   -4.7960   11.5500 C.3    42  PHE42       0.1756
     31  C         18.3970   -5.8810   11.6230 C.2    42  PHE42       0.2461
     32  O         19.4840   -5.7440   11.0850 O.2    42  PHE42      -0.2730
     33  CB        16.4890   -5.0500   10.3140 C.3    42  PHE42       0.0574
     34  CG        15.2210   -4.2810   10.2590 C.ar   42  PHE42      -0.0200
     35  CD1       14.1000   -4.7740   10.9180 C.ar   42  PHE42      -0.0042
     36  CD2       15.1430   -3.0650    9.5680 C.ar   42  PHE42      -0.0042
     37  CE1       12.8960   -4.1260   10.8370 C.ar   42  PHE42      -0.0003
     38  CE2       13.8830   -2.4170    9.5100 C.ar   42  PHE42      -0.0003
     39  CZ        12.7900   -2.9930   10.1250 C.ar   42  PHE42      -0.0000
     40  N         18.0420   -7.0510   12.1440 N.am   43  PRO43      -0.2727
     41  CA        19.0010   -8.1570   12.2050 C.3    43  PRO43       0.1402
     42  C         19.4220   -8.7200   10.8630 C.2    43  PRO43       0.2269
     43  O         20.4810   -9.3120   10.7200 O.2    43  PRO43      -0.2865
     44  CB        18.2600   -9.2110   13.0250 C.3    43  PRO43       0.0296
     45  CG        16.8280   -8.7990   13.0450 C.3    43  PRO43       0.0237
     46  CD        16.7960   -7.3470   12.8690 C.3    43  PRO43       0.0939
     47  N         12.4060  -12.5460    9.2860 N.3    57  ARG57      -0.1245
     48  CA        12.1970  -11.3320   10.0240 C.3    57  ARG57       0.1563
     49  C         11.8070  -10.1790    9.1150 C.2    57  ARG57       0.2260
     50  O         11.0160   -9.3300    9.5030 O.2    57  ARG57      -0.2867
     51  CB        13.4140  -11.0490   10.8900 C.3    57  ARG57       0.0307
     52  CG        13.4790  -12.0010   12.0680 C.3    57  ARG57       0.0489
     53  CD        14.6340  -11.7330   13.0040 C.3    57  ARG57       0.2205
     54  NE        14.4740  -12.5060   14.2410 N.pl3  57  ARG57      -0.0865
     55  CZ        14.6210  -13.8190   14.3570 C.cat  57  ARG57       0.5346
     56  NH1       15.0100  -14.5520   13.3390 N.pl3  57  ARG57       0.1354
     57  NH2       14.4050  -14.4280   15.5350 N.pl3  57  ARG57       0.1354
     58  N          8.1870   -8.0510    9.4780 N.3    61  HIS61      -0.1241
     59  CA         7.9850   -6.6040    9.5100 C.3    61  HIS61       0.1621
     60  C          7.1200   -6.1310    8.3480 C.2    61  HIS61       0.2264
     61  O          6.2810   -5.2580    8.4970 O.2    61  HIS61      -0.2867
     62  CB         9.3270   -5.8430    9.5460 C.3    61  HIS61       0.0745
     63  CG         9.1670   -4.4090    9.9190 C.ar   61  HIS61       0.0817
     64  ND1        8.9930   -3.3980    9.0070 N.ar   61  HIS61      -0.2268
     65  CD2        9.1200   -3.8110   11.1280 C.ar   61  HIS61       0.1154
     66  CE1        8.8330   -2.2530    9.6580 C.ar   61  HIS61       0.1986
     67  NE2        8.9190   -2.4700   10.9460 N.ar   61  HIS61      -0.2212
     68  N          3.6400   -6.8200    9.2420 N.3    64  ARG64      -0.1231
     69  CA         3.1760   -5.8860   10.2490 C.3    64  ARG64       0.1694
     70  C          2.7110   -4.6050    9.6300 C.2    64  ARG64       0.2591
     71  O          1.7140   -4.0510   10.0580 O.2    64  ARG64      -0.2718
     72  CB         4.2810   -5.5970   11.2730 C.3    64  ARG64       0.0321
     73  CG         4.4260   -6.7100   12.3500 C.3    64  ARG64       0.0489
     74  CD         5.6710   -6.6250   13.2220 C.3    64  ARG64       0.2205
     75  NE         5.5470   -7.5450   14.3580 N.pl3  64  ARG64      -0.0865
     76  CZ         6.3760   -8.5130   14.6800 C.cat  64  ARG64       0.5346
     77  NH1        7.5100   -8.7050   14.0460 N.pl3  64  ARG64       0.1354
     78  NH2        6.0760   -9.2640   15.7230 N.pl3  64  ARG64       0.1354
     79  N          3.4490   -4.0700    8.6820 N.am   65  ILE65      -0.1980
     80  CA         3.0190   -2.8100    8.0720 C.3    65  ILE65       0.1595
     81  C          1.6330   -3.0160    7.4480 C.2    65  ILE65       0.2287
     82  O          0.7410   -2.2000    7.6140 O.2    65  ILE65      -0.2864
     83  CB         4.0570   -2.3650    7.0290 C.3    65  ILE65       0.0276
     84  CG1        5.3570   -1.9410    7.7100 C.3    65  ILE65       0.0022
     85  CG2        3.4940   -1.2440    6.1910 C.3    65  ILE65       0.0022
     86  CD1        6.5000   -1.7110    6.7750 C.3    65  ILE65       0.0001
     87  N         -1.1280   -3.5120   10.2690 N.3    68  VAL68      -0.1231
     88  CA        -1.4470   -2.3220   11.0110 C.3    68  VAL68       0.1692
     89  C         -2.2690   -1.3510   10.1570 C.2    68  VAL68       0.2592
     90  O         -3.1990   -0.7310   10.6610 O.2    68  VAL68      -0.2718
     91  CB        -0.1520   -1.6640   11.5710 C.3    68  VAL68       0.0266
     92  CG1       -0.4120   -0.3130   12.1900 C.3    68  VAL68       0.0020
     93  CG2        0.4830   -2.6030   12.6160 C.3    68  VAL68       0.0020
     94  N         -1.9200   -1.2010    8.8880 N.am   69  PHE69      -0.1976
     95  CA        -2.7980   -0.4450    8.0130 C.3    69  PHE69       0.1639
     96  C         -4.1770   -1.0700    7.8990 C.2    69  PHE69       0.2290
     97  O         -5.1730   -0.3740    7.9230 O.2    69  PHE69      -0.2864
     98  CB        -2.1550   -0.2460    6.6360 C.3    69  PHE69       0.0560
     99  CG        -1.3160    0.9910    6.5940 C.ar   69  PHE69      -0.0200
    100  CD1        0.0200    0.9720    6.8050 C.ar   69  PHE69      -0.0042
    101  CD2       -1.9230    2.2460    6.5050 C.ar   69  PHE69      -0.0042
    102  CE1        0.7470    2.1580    6.7920 C.ar   69  PHE69      -0.0003
    103  CE2       -1.1870    3.3820    6.4990 C.ar   69  PHE69      -0.0003
    104  CZ         0.1590    3.3210    6.6220 C.ar   69  PHE69      -0.0000
    105  N         -1.5450    4.0280   16.5130 N.3    89  TRP89      -0.1241
    106  CA        -0.3250    4.6610   15.9850 C.3    89  TRP89       0.1605
    107  C          0.5660    5.2270   17.0810 C.2    89  TRP89       0.2264
    108  O          1.7630    5.3300   16.8870 O.2    89  TRP89      -0.2867
    109  CB        -0.6840    5.6480   14.8940 C.3    89  TRP89       0.0550
    110  CG        -1.1480    4.9140   13.6820 C.ar   89  TRP89       0.0003
    111  CD1       -2.4490    4.6240   13.3210 C.ar   89  TRP89       0.0946
    112  CD2       -0.3280    4.2880   12.7180 C.ar   89  TRP89       0.0152
    113  NE1       -2.4530    3.8580   12.1870 N.ar   89  TRP89      -0.2442
    114  CE2       -1.1600    3.6530   11.7950 C.ar   89  TRP89       0.0810
    115  CE3        1.0420    4.2250   12.5300 C.ar   89  TRP89       0.0012
    116  CZ2       -0.6610    2.9830   10.6870 C.ar   89  TRP89       0.0191
    117  CZ3        1.5320    3.5500   11.4350 C.ar   89  TRP89       0.0001
    118  CH2        0.6810    2.9540   10.5230 C.ar   89  TRP89       0.0015
    119  N          2.5370    2.1440   17.8540 N.3    92  ILE92      -0.1245
    120  CA         3.5940    1.9510   16.8580 C.3    92  ILE92       0.1561
    121  C          4.7500    2.9130   17.1140 C.2    92  ILE92       0.2260
    122  O          5.9210    2.5270   17.1070 O.2    92  ILE92      -0.2867
    123  CB         3.0350    2.1570   15.4490 C.3    92  ILE92       0.0252
    124  CG1        1.9990    1.0810   15.0990 C.3    92  ILE92       0.0019
    125  CG2        4.1420    2.1690   14.4240 C.3    92  ILE92       0.0019
    126  CD1        2.4880   -0.3180   15.1970 C.3    92  ILE92       0.0001
    127  N          6.7630    1.8950   20.1110 N.3    95  SER95      -0.1202
    128  CA         7.4780    0.6530   19.8560 C.3    95  SER95       0.2020
    129  C          8.8050    0.8600   19.1320 C.2    95  SER95       0.2618
    130  O          9.6800    0.0050   19.2200 O.2    95  SER95      -0.2717
    131  CB         6.5990   -0.3140   19.0240 C.3    95  SER95       0.2103
    132  OG         5.6030   -0.8690   19.8310 O.3    95  SER95      -0.2182
    133  N          8.9700    1.9300   18.3840 N.am   96  HIS96      -0.1975
    134  CA        10.2000    2.1700   17.6480 C.3    96  HIS96       0.1656
    135  C         11.1980    3.0360   18.3930 C.2    96  HIS96       0.2291
    136  O         12.3220    3.1640   17.9270 O.2    96  HIS96      -0.2864
    137  CB         9.8800    2.7440   16.2700 C.3    96  HIS96       0.0771
    138  CG         9.1990    1.7780   15.3610 C.ar   96  HIS96       0.0820
    139  ND1        7.8430    1.5470   15.3780 N.ar   96  HIS96      -0.2267
    140  CD2        9.7120    0.9070   14.4550 C.ar   96  HIS96       0.1154
    141  CE1        7.5540    0.6070   14.4720 C.ar   96  HIS96       0.1986
    142  NE2        8.6660    0.2230   13.8830 N.ar   96  HIS96      -0.2212
    143  N         14.6500    1.8290   18.8030 N.3    99  ARG99      -0.1245
    144  CA        15.3850    1.6710   17.5790 C.3    99  ARG99       0.1563
    145  C         15.7080    3.0120   16.9180 C.2    99  ARG99       0.2260
    146  O         16.2070    3.0400   15.8150 O.2    99  ARG99      -0.2867
    147  CB        14.5950    0.8020   16.5960 C.3    99  ARG99       0.0307
    148  CG        14.4240   -0.5980   17.0490 C.3    99  ARG99       0.0489
    149  CD        15.7740   -1.3500   17.0830 C.3    99  ARG99       0.2205
    150  NE        15.5330   -2.7370   17.4860 N.pl3  99  ARG99      -0.0865
    151  CZ        15.2270   -3.1390   18.7190 C.cat  99  ARG99       0.5346
    152  NH1       15.3160   -2.3120   19.7490 N.pl3  99  ARG99       0.1354
    153  NH2       14.8820   -4.3880   18.9530 N.pl3  99  ARG99       0.1354
    154  N         14.1070    5.3110   15.2880 N.3   101  VAL101     -0.1245
    155  CA        13.5650    5.5300   13.9640 C.3   101  VAL101      0.1561
    156  C         13.1760    7.0030   13.8430 C.2   101  VAL101      0.2260
    157  O         12.2580    7.4680   14.5330 O.2   101  VAL101     -0.2867
    158  CB        12.3880    4.5970   13.6620 C.3   101  VAL101      0.0252
    159  CG1       11.7880    4.9080   12.3200 C.3   101  VAL101      0.0019
    160  CG2       12.8380    3.1550   13.7650 C.3   101  VAL101      0.0019
    161  N         13.3030    8.8880    8.6480 N.3   105  SER105     -0.1202
    162  CA        13.0740    7.5020    8.2940 C.3   105  SER105      0.2020
    163  C         11.5960    7.2080    8.0730 C.2   105  SER105      0.2618
    164  O         11.2200    6.5710    7.0900 O.2   105  SER105     -0.2717
    165  CB        13.6350    6.6240    9.4020 C.3   105  SER105      0.2103
    166  OG        13.4570    5.2710    9.1660 O.3   105  SER105     -0.2182
    167  N         10.7190    7.6380    8.9750 N.am  106  TYR106     -0.1975
    168  CA         9.3020    7.5110    8.7550 C.3   106  TYR106      0.1639
    169  C          8.8700    8.1790    7.4430 C.2   106  TYR106      0.2290
    170  O          8.0750    7.6120    6.6880 O.2   106  TYR106     -0.2864
    171  CB         8.4830    8.0730    9.8940 C.3   106  TYR106      0.0560
    172  CG         8.3590    7.1610   11.0930 C.ar  106  TYR106     -0.0198
    173  CD1        7.5980    6.0070   11.0480 C.ar  106  TYR106     -0.0009
    174  CD2        8.9740    7.4990   12.2890 C.ar  106  TYR106     -0.0009
    175  CE1        7.4230    5.1990   12.1350 C.ar  106  TYR106      0.0417
    176  CE2        8.7970    6.6970   13.4040 C.ar  106  TYR106      0.0417
    177  CZ         8.0030    5.5650   13.3370 C.ar  106  TYR106      0.1957
    178  OH         7.7900    4.7830   14.4280 O.3   106  TYR106     -0.2866
    179  N          9.6780    6.0790    4.5050 N.3   109  LEU109     -0.1245
    180  CA         8.7320    5.0030    4.3360 C.3   109  LEU109      0.1561
    181  C          7.4050    5.5120    3.7950 C.2   109  LEU109      0.2260
    182  O          6.7510    4.8250    3.0090 O.2   109  LEU109     -0.2867
    183  CB         8.5280    4.2590    5.6720 C.3   109  LEU109      0.0270
    184  CG         7.6710    3.0020    5.5640 C.3   109  LEU109      0.0019
    185  CD1        8.2900    1.9230    4.7370 C.3   109  LEU109      0.0001
    186  CD2        7.3270    2.4520    6.9310 C.3   109  LEU109      0.0001
    187  N          5.2610    3.8330    0.8070 N.3   113  ILE113     -0.1245
    188  CA         3.9230    3.2460    0.9810 C.3   113  ILE113      0.1561
    189  C          2.9640    3.8200   -0.0440 C.2   113  ILE113      0.2260
    190  O          2.2350    3.0980   -0.7150 O.2   113  ILE113     -0.2867
    191  CB         3.4050    3.5180    2.4120 C.3   113  ILE113      0.0252
    192  CG1        4.2240    2.7100    3.4220 C.3   113  ILE113      0.0019
    193  CG2        1.9230    3.1850    2.5180 C.3   113  ILE113      0.0019
    194  CD1        3.9540    3.1460    4.8400 C.3   113  ILE113      0.0001
    195  N          0.5200    9.7480   10.5250 N.3   139  TYR139     -0.1241
    196  CA         1.8660   10.3150   10.7850 C.3   139  TYR139      0.1605
    197  C          1.8110   11.4330   11.8070 C.2   139  TYR139      0.2264
    198  O          2.7590   11.5800   12.6010 O.2   139  TYR139     -0.2867
    199  CB         2.5180   10.7820    9.4900 C.3   139  TYR139      0.0534
    200  CG         3.3420    9.7000    8.8740 C.ar  139  TYR139     -0.0201
    201  CD1        2.8620    8.4000    8.6700 C.ar  139  TYR139     -0.0009
    202  CD2        4.6440    9.9310    8.5040 C.ar  139  TYR139     -0.0009
    203  CE1        3.6160    7.3880    8.1330 C.ar  139  TYR139      0.0417
    204  CE2        5.4270    8.8830    7.9560 C.ar  139  TYR139      0.0417
    205  CZ         4.9090    7.6150    7.8300 C.ar  139  TYR139      0.1957
    206  OH         5.6450    6.5780    7.3130 O.3   139  TYR139     -0.2866
    207  N          2.0170    9.5690   15.0330 N.3   142  ILE142     -0.1245
    208  CA         3.3670    9.1190   15.3210 C.3   142  ILE142      0.1561
    209  C          4.2020   10.2830   15.8240 C.2   142  ILE142      0.2260
    210  O          4.9720   10.2020   16.7940 O.2   142  ILE142     -0.2867
    211  CB         4.0330    8.5090   14.0520 C.3   142  ILE142      0.0252
    212  CG1        3.2450    7.2780   13.5490 C.3   142  ILE142      0.0019
    213  CG2        5.5070    8.1300   14.3450 C.3   142  ILE142      0.0019
    214  CD1        3.8010    6.7730   12.2630 C.3   142  ILE142      0.0001
@<TRIPOS>BOND
     1   190   189    2
     2   189   188    1
     3     1     2    1
     4   187   188    1
     5   188   191    1
     6     2     3    1
     7     2     5    1
     8     3     4    2
     9   191   193    1
    10   191   192    1
    11     5     6    1
    12   182   181    2
    13   192   194    1
    14   181   180    1
    15     6     7   ar
    16     6     8   ar
    17     7     9   ar
    18   180   179    1
    19   180   183    1
    20   185   184    1
    21     8    10   ar
    22     9    11   ar
    23   184   183    1
    24   184   186    1
    25    19    17   am
    26    85    83    1
    27    10    11   ar
    28   103   101   ar
    29   103   104   ar
    30   101    99   ar
    31    12    13    1
    32    99    98    1
    33    99   100   ar
    34   104   102   ar
    35    98    95    1
    36   170   169    2
    37    86    84    1
    38   102   100   ar
    39    16    17    1
    40    16    13    1
    41    17    18    2
    42    83    84    1
    43    83    80    1
    44   164   163    2
    45   206   205    1
    46    13    14    1
    47   169   168    1
    48    81    82    2
    49    81    80    1
    50    14    15    2
    51   205   204   ar
    52   205   203   ar
    53    96    97    2
    54    96    95    1
    55   204   202   ar
    56    95    94    1
    57    80    79    1
    58   163   162    1
    59   163   167   am
    60   203   201   ar
    61   162   161    1
    62   162   165    1
    63    60    61    2
    64    60    59    1
    65   202   200   ar
    66   201   200   ar
    67    79    70   am
    68   168   167    1
    69   168   171    1
    70   200   199    1
    71    94    89   am
    72    64    66   ar
    73    64    63   ar
    74    49    50    2
    75    49    48    1
    76   166   165    1
    77    68    69    1
    78    47    48    1
    79    58    59    1
    80   199   196    1
    81    59    62    1
    82    38    36   ar
    83    38    39   ar
    84    62    63    1
    85    36    34   ar
    86    70    71    2
    87    70    69    1
    88    66    67   ar
    89   171   172    1
    90    63    65   ar
    91    48    51    1
    92    39    37   ar
    93    89    90    2
    94    89    88    1
    95    69    72    1
    96    34    33    1
    97    34    35   ar
    98    87    88    1
    99    33    30    1
   100   118   116   ar
   101   118   117   ar
   102   195   196    1
   103   116   114   ar
   104    43    42    2
   105   196   197    1
   106    37    35   ar
   107    42    41    1
   108    51    52    1
   109    67    65   ar
   110    88    91    1
   111   173   172   ar
   112   173   175   ar
   113    20    21    1
   114    32    31    2
   115   172   174   ar
   116    72    73    1
   117   117   115   ar
   118    29    30    1
   119    29    22   am
   120    30    31    1
   121    91    92    1
   122    91    93    1
   123    31    40   am
   124   114   113   ar
   125   114   112   ar
   126   197   198    2
   127    25    24    1
   128    25    26    1
   129    52    53    1
   130   175   177   ar
   131    40    41    1
   132    40    46    1
   133    24    21    1
   134   113   111   ar
   135    41    44    1
   136    21    22    1
   137   214   212    1
   138   174   176   ar
   139   159   158    1
   140    73    74    1
   141    22    23    2
   142   115   112   ar
   143   112   110   ar
   144    46    45    1
   145    53    54    1
   146    44    45    1
   147    27    26    1
   148    27    28    1
   149    74    75    1
   150   111   110   ar
   151   177   176   ar
   152   177   178    1
   153    56    55    1
   154   212   211    1
   155   158   160    1
   156   158   155    1
   157   110   109    1
   158   156   155    1
   159   156   157    2
   160   142   140   ar
   161   142   141   ar
   162   155   154    1
   163    77    76    1
   164   211   213    1
   165   211   208    1
   166    54    55    2
   167    55    57    1
   168    75    76    2
   169   125   123    1
   170   140   138   ar
   171   141   139   ar
   172    76    78    1
   173   109   106    1
   174   207   208    1
   175   124   126    1
   176   124   123    1
   177   208   209    1
   178   138   139   ar
   179   138   137    1
   180   123   120    1
   181   146   145    2
   182   209   210    2
   183   106   105    1
   184   106   107    1
   185   137   134    1
   186   147   148    1
   187   147   144    1
   188   120   121    1
   189   120   119    1
   190   108   107    2
   191   145   144    1
   192   148   149    1
   193   149   150    1
   194   122   121    2
   195   150   151    2
   196   144   143    1
   197   134   133    1
   198   134   135    1
   199   136   135    2
   200   133   129   am
   201   151   153    1
   202   151   152    1
   203   131   132    1
   204   131   128    1
   205   129   130    2
   206   129   128    1
   207   128   127    1
