@<TRIPOS>MOLECULE
tmp/2bkaA00.pdb
 200 192 0 0 0
SMALL
GASTEIGER

@<TRIPOS>ATOM
      1  N         14.8470   54.0930   48.2160 N.3    21  GLY21      -0.1225
      2  CA        15.2550   53.1890   49.2770 C.3    21  GLY21       0.1811
      3  C         16.6910   53.3680   49.7510 C.2    21  GLY21       0.2280
      4  O         17.2520   52.4490   50.3470 O.2    21  GLY21      -0.2866
      5  N         17.7470   54.9550   52.2080 N.3    23  SER23      -0.1202
      6  CA        17.8070   54.9600   53.6730 C.3    23  SER23       0.2020
      7  C         17.8110   53.5420   54.2320 C.2    23  SER23       0.2619
      8  O         18.1650   53.3220   55.3920 O.2    23  SER23      -0.2717
      9  CB        16.6270   55.7420   54.2680 C.3    23  SER23       0.2103
     10  OG        15.3940   55.0890   54.0220 O.3    23  SER23      -0.2182
     11  N         17.4190   52.5850   53.3990 N.am   24  GLY24      -0.1942
     12  CA        17.3910   51.1910   53.8200 C.3    24  GLY24       0.2014
     13  C         18.7800   50.5970   53.9090 C.2    24  GLY24       0.2639
     14  O         19.7660   51.2210   53.5060 O.2    24  GLY24      -0.2714
     15  N         18.8780   49.3800   54.4270 N.am   25  GLU25      -0.1963
     16  CA        20.1940   48.7720   54.5600 C.3    25  GLU25       0.1733
     17  C         20.8410   48.4280   53.2220 C.2    25  GLU25       0.2617
     18  O         22.0450   48.6210   53.0510 O.2    25  GLU25      -0.2715
     19  CB        20.1160   47.5490   55.4730 C.3    25  GLU25       0.0429
     20  CG        19.7060   47.8780   56.9130 C.3    25  GLU25       0.1163
     21  CD        20.6560   48.8400   57.6210 C.2    25  GLU25       0.3649
     22  OE1       21.8780   48.7770   57.3840 O.co2  25  GLU25      -0.2457
     23  OE2       20.1790   49.6520   58.4400 O.co2  25  GLU25      -0.2457
     24  N         20.0720   47.9280   52.2600 N.am   26  THR26      -0.1937
     25  CA        20.6780   47.6310   50.9650 C.3    26  THR26       0.2028
     26  C         20.9330   48.9560   50.2520 C.2    26  THR26       0.2642
     27  O         22.0020   49.1850   49.6850 O.2    26  THR26      -0.2714
     28  CB        19.7600   46.7720   50.0850 C.3    26  THR26       0.1808
     29  OG1       19.3810   45.5950   50.8100 O.3    26  THR26      -0.2208
     30  CG2       20.4860   46.3610   48.7980 C.3    26  THR26       0.0379
     31  N         19.9420   49.8390   50.3000 N.am   27  GLY27      -0.1954
     32  CA        20.0810   51.1230   49.6370 C.3    27  GLY27       0.1869
     33  C         21.2610   51.9440   50.1240 C.2    27  GLY27       0.2309
     34  O         21.9100   52.6180   49.3250 O.2    27  GLY27      -0.2863
     35  N         10.6880   59.5330   51.0960 N.3    48  ARG48      -0.1231
     36  CA         9.7640   60.2360   51.9820 C.3    48  ARG48       0.1694
     37  C         10.3700   61.2070   52.9890 C.2    48  ARG48       0.2591
     38  O          9.6340   61.9670   53.6290 O.2    48  ARG48      -0.2718
     39  CB         8.8910   59.2160   52.7320 C.3    48  ARG48       0.0321
     40  CG         9.6320   58.2910   53.6930 C.3    48  ARG48       0.0489
     41  CD         8.6050   57.5450   54.5330 C.3    48  ARG48       0.2205
     42  NE         9.1440   56.4140   55.2840 N.pl3  48  ARG48      -0.0865
     43  CZ         8.3870   55.6020   56.0160 C.cat  48  ARG48       0.5346
     44  NH1        7.0740   55.8150   56.0910 N.pl3  48  ARG48       0.1354
     45  NH2        8.9230   54.5660   56.6480 N.pl3  48  ARG48       0.1354
     46  N         11.6890   61.2060   53.1410 N.am   49  ARG49      -0.1980
     47  CA        12.3150   62.0950   54.1120 C.3    49  ARG49       0.1597
     48  C         13.7370   62.4900   53.7490 C.2    49  ARG49       0.2287
     49  O         14.4340   61.7700   53.0360 O.2    49  ARG49      -0.2864
     50  CB        12.2990   61.4330   55.4980 C.3    49  ARG49       0.0334
     51  CG        13.0780   60.1220   55.5690 C.3    49  ARG49       0.0492
     52  CD        12.7160   59.3220   56.8150 C.3    49  ARG49       0.2205
     53  NE        13.4200   58.0440   56.8690 N.pl3  49  ARG49      -0.0865
     54  CZ        14.6070   57.8600   57.4420 C.cat  49  ARG49       0.5346
     55  NH1       15.2390   58.8770   58.0210 N.pl3  49  ARG49       0.1354
     56  NH2       15.1670   56.6590   57.4400 N.pl3  49  ARG49       0.1354
     57  N          4.6650   59.8240   48.5980 N.3    68  PHE68      -0.1241
     58  CA         4.3170   58.7050   47.7350 C.3    68  PHE68       0.1605
     59  C          2.8180   58.5650   47.4780 C.2    68  PHE68       0.2264
     60  O          2.4120   57.9950   46.4670 O.2    68  PHE68      -0.2867
     61  CB         4.9060   57.4090   48.3040 C.3    68  PHE68       0.0534
     62  CG         6.3790   57.2340   48.0170 C.ar   68  PHE68      -0.0203
     63  CD1        6.8150   56.7910   46.7680 C.ar   68  PHE68      -0.0042
     64  CD2        7.3300   57.5260   48.9960 C.ar   68  PHE68      -0.0042
     65  CE1        8.1800   56.6380   46.4890 C.ar   68  PHE68      -0.0003
     66  CE2        8.6890   57.3810   48.7400 C.ar   68  PHE68      -0.0003
     67  CZ         9.1230   56.9350   47.4850 C.ar   68  PHE68      -0.0000
     68  N         15.1540   50.0460   45.8830 N.3    87  CYS87      -0.1221
     69  CA        15.4080   49.1990   47.0480 C.3    87  CYS87       0.1808
     70  C         14.3540   49.4260   48.1360 C.2    87  CYS87       0.2601
     71  O         14.6080   49.1800   49.3230 O.2    87  CYS87      -0.2717
     72  CB        16.7900   49.4980   47.6410 C.3    87  CYS87       0.0970
     73  SG        18.1720   49.2390   46.4750 S.3    87  CYS87      -0.0800
     74  N         13.1810   49.9080   47.7310 N.am   88  LEU88      -0.1965
     75  CA        12.0860   50.1520   48.6710 C.3    88  LEU88       0.1728
     76  C         11.4560   48.8330   49.0970 C.2    88  LEU88       0.2617
     77  O         11.4580   47.8600   48.3440 O.2    88  LEU88      -0.2715
     78  CB        10.9780   50.9610   48.0080 C.3    88  LEU88       0.0311
     79  CG        11.2080   52.4000   47.5840 C.3    88  LEU88       0.0022
     80  CD1       10.0530   52.8350   46.6790 C.3    88  LEU88       0.0001
     81  CD2       11.2960   53.2830   48.8150 C.3    88  LEU88       0.0001
     82  N         10.9010   48.8160   50.3040 N.am   89  GLY89      -0.1940
     83  CA        10.2230   47.6240   50.7670 C.3    89  GLY89       0.2014
     84  C          9.8510   47.7120   52.2280 C.2    89  GLY89       0.2639
     85  O         10.5730   48.3130   53.0280 O.2    89  GLY89      -0.2714
     86  N          8.7080   47.1380   52.5790 N.am   90  THR90      -0.1950
     87  CA         8.2940   47.1180   53.9790 C.3    90  THR90       0.1897
     88  C          7.8990   45.6720   54.3180 C.2    90  THR90       0.2313
     89  O          8.2650   44.7480   53.5940 O.2    90  THR90      -0.2863
     90  CB         7.1260   48.1150   54.2450 C.3    90  THR90       0.1794
     91  OG1        6.9170   48.2310   55.6620 O.3    90  THR90      -0.2208
     92  CG2        5.8390   47.6590   53.5580 C.3    90  THR90       0.0378
     93  N          5.1820   45.4650   59.9280 N.3    94  LYS94      -0.1231
     94  CA         5.2990   46.9070   60.1290 C.3    94  LYS94       0.1693
     95  C          4.1900   47.7410   59.5070 C.2    94  LYS94       0.2591
     96  O          3.8270   48.7890   60.0390 O.2    94  LYS94      -0.2718
     97  CB         6.6410   47.4200   59.5860 C.3    94  LYS94       0.0285
     98  CG         7.8500   46.8650   60.3150 C.3    94  LYS94       0.0035
     99  CD         9.1480   47.5530   59.9060 C.3    94  LYS94       0.0206
    100  CE         9.5360   47.2320   58.4740 C.3    94  LYS94       0.1093
    101  NZ        10.8940   47.7670   58.1600 N.3    94  LYS94      -0.1314
    102  N          3.6430   47.2810   58.3900 N.am   95  ALA95      -0.1980
    103  CA         2.6370   48.0650   57.6920 C.3    95  ALA95       0.1597
    104  C          1.2590   47.4460   57.5490 C.2    95  ALA95       0.2287
    105  O          0.3480   48.1010   57.0430 O.2    95  ALA95      -0.2864
    106  CB         3.1650   48.4250   56.2990 C.3    95  ALA95       0.0319
    107  N          3.1840   49.7170   49.5710 N.3   103  VAL103     -0.1231
    108  CA         4.5820   50.0970   49.3670 C.3   103  VAL103      0.1692
    109  C          5.2880   49.2580   48.3160 C.2   103  VAL103      0.2592
    110  O          5.7560   49.7800   47.3040 O.2   103  VAL103     -0.2718
    111  CB         5.4010   49.9890   50.6780 C.3   103  VAL103      0.0266
    112  CG1        6.8900   50.2650   50.3910 C.3   103  VAL103      0.0020
    113  CG2        4.8650   50.9740   51.7120 C.3   103  VAL103      0.0020
    114  N          5.3650   47.9540   48.5580 N.am  104  ASP104     -0.1974
    115  CA         6.0710   47.0630   47.6450 C.3   104  ASP104      0.1709
    116  C          5.5140   46.9430   46.2400 C.2   104  ASP104      0.2293
    117  O          6.2670   46.6600   45.3060 O.2   104  ASP104     -0.2864
    118  CB         6.2320   45.6890   48.2950 C.3   104  ASP104      0.1436
    119  CG         7.2100   45.7280   49.4470 C.2   104  ASP104      0.3671
    120  OD1        6.9700   46.5160   50.3880 O.co2 104  ASP104     -0.2456
    121  OD2        8.2220   44.9900   49.4070 O.co2 104  ASP104     -0.2456
    122  N          3.7520   51.8260   45.3630 N.3   107  TYR107     -0.1241
    123  CA         4.7630   52.8840   45.3090 C.3   107  TYR107      0.1605
    124  C          5.8700   52.5680   44.3120 C.2   107  TYR107      0.2264
    125  O          6.3550   53.4480   43.5910 O.2   107  TYR107     -0.2867
    126  CB         5.3960   53.1150   46.6910 C.3   107  TYR107      0.0534
    127  CG         4.4970   53.7340   47.7440 C.ar  107  TYR107     -0.0201
    128  CD1        3.1920   54.1430   47.4450 C.ar  107  TYR107     -0.0009
    129  CD2        4.9550   53.8960   49.0550 C.ar  107  TYR107     -0.0009
    130  CE1        2.3660   54.6950   48.4370 C.ar  107  TYR107      0.0417
    131  CE2        4.1420   54.4430   50.0440 C.ar  107  TYR107      0.0417
    132  CZ         2.8520   54.8370   49.7290 C.ar  107  TYR107      0.1957
    133  OH         2.0550   55.3640   50.7220 O.3   107  TYR107     -0.2866
    134  N         15.0160   45.5790   43.0050 N.3   126  LEU126     -0.1231
    135  CA        15.4550   44.6160   44.0040 C.3   126  LEU126      0.1693
    136  C         14.2040   43.8530   44.4020 C.2   126  LEU126      0.2593
    137  O         13.2820   44.4150   45.0020 O.2   126  LEU126     -0.2718
    138  CB        16.0520   45.3360   45.2200 C.3   126  LEU126      0.0284
    139  CG        16.5670   44.4490   46.3630 C.3   126  LEU126      0.0019
    140  CD1       17.4780   43.3460   45.8300 C.3   126  LEU126      0.0001
    141  CD2       17.3300   45.3420   47.3510 C.3   126  LEU126      0.0001
    142  N         14.1740   42.5800   44.0190 N.am  127  SER127     -0.1938
    143  CA        13.0630   41.6840   44.3130 C.3   127  SER127      0.2055
    144  C         13.5820   40.6630   45.3180 C.2   127  SER127      0.2643
    145  O         14.4650   40.9680   46.1250 O.2   127  SER127     -0.2714
    146  CB        12.6030   40.9890   43.0210 C.3   127  SER127      0.2130
    147  OG        11.4170   40.2250   43.2170 O.3   127  SER127     -0.2179
    148  N         13.0630   39.4410   45.2500 N.am  128  SER128     -0.1949
    149  CA        13.4700   38.3960   46.1820 C.3   128  SER128      0.1924
    150  C         13.4550   37.0110   45.5580 C.2   128  SER128      0.2314
    151  O         12.6560   36.7190   44.6730 O.2   128  SER128     -0.2863
    152  CB        12.5140   38.3720   47.3820 C.3   128  SER128      0.2116
    153  OG        12.7310   37.2270   48.2020 O.3   128  SER128     -0.2180
    154  N          4.1190   37.9950   50.6990 N.3   139  TYR139     -0.1241
    155  CA         5.3870   38.6270   50.3380 C.3   139  TYR139      0.1605
    156  C          5.8560   38.2450   48.9350 C.2   139  TYR139      0.2264
    157  O          6.1350   39.1180   48.1060 O.2   139  TYR139     -0.2867
    158  CB         6.4660   38.2570   51.3590 C.3   139  TYR139      0.0534
    159  CG         7.8220   38.8330   51.0230 C.ar  139  TYR139     -0.0201
    160  CD1        8.1160   40.1780   51.2660 C.ar  139  TYR139     -0.0009
    161  CD2        8.7960   38.0340   50.4320 C.ar  139  TYR139     -0.0009
    162  CE1        9.3720   40.7130   50.9180 C.ar  139  TYR139      0.0417
    163  CE2       10.0400   38.5500   50.0850 C.ar  139  TYR139      0.0417
    164  CZ        10.3170   39.8880   50.3320 C.ar  139  TYR139      0.1957
    165  OH        11.5520   40.3820   49.9940 O.3   139  TYR139     -0.2866
    166  N          5.9580   40.3570   45.3030 N.3   143  LYS143     -0.1245
    167  CA         7.2090   40.5430   44.5700 C.3   143  LYS143      0.1561
    168  C          7.0480   40.0610   43.1310 C.2   143  LYS143      0.2260
    169  O          7.4960   40.7270   42.1970 O.2   143  LYS143     -0.2867
    170  CB         8.3720   39.7970   45.2380 C.3   143  LYS143      0.0271
    171  CG         8.8190   40.3950   46.5800 C.3   143  LYS143      0.0035
    172  CD         9.0880   41.9020   46.4600 C.3   143  LYS143      0.0206
    173  CE         9.8460   42.4310   47.6680 C.3   143  LYS143      0.1093
    174  NZ        10.0720   43.9150   47.5690 N.3   143  LYS143     -0.1314
    175  N         17.7730   38.1400   45.2810 N.3   163  PRO163     -0.2102
    176  CA        18.6660   37.6020   46.3120 C.3   163  PRO163      0.1504
    177  C         17.9390   36.7650   47.3570 C.2   163  PRO163      0.2576
    178  O         16.7370   36.9270   47.5710 O.2   163  PRO163     -0.2718
    179  CB        19.2650   38.8630   46.9380 C.3   163  PRO163      0.0282
    180  CG        18.1080   39.8390   46.8480 C.3   163  PRO163      0.0208
    181  CD        17.5990   39.5980   45.4310 C.3   163  PRO163      0.0893
    182  N         18.6910   35.8710   47.9910 N.am  164  GLY164     -0.1943
    183  CA        18.1520   35.0820   49.0810 C.3   164  GLY164      0.2014
    184  C         18.1860   36.0140   50.2820 C.2   164  GLY164      0.2639
    185  O         18.3840   37.2290   50.1100 O.2   164  GLY164     -0.2714
    186  N         18.0200   35.4790   51.4920 N.am  165  VAL165     -0.1963
    187  CA        18.0230   36.3220   52.6930 C.3   165  VAL165      0.1727
    188  C         19.3280   37.1160   52.7810 C.2   165  VAL165      0.2616
    189  O         20.4100   36.5670   52.6060 O.2   165  VAL165     -0.2715
    190  CB        17.8230   35.4660   53.9540 C.3   165  VAL165      0.0290
    191  CG1       17.7990   36.3500   55.1770 C.3   165  VAL165      0.0023
    192  CG2       16.5070   34.6970   53.8520 C.3   165  VAL165      0.0023
    193  N         19.2120   38.4150   53.0540 N.am  166  LEU166     -0.1977
    194  CA        20.3820   39.2960   53.1020 C.3   166  LEU166      0.1596
    195  C         21.1990   39.2150   54.3820 C.2   166  LEU166      0.2287
    196  O         20.6780   39.3820   55.4810 O.2   166  LEU166     -0.2864
    197  CB        19.9420   40.7490   52.8800 C.3   166  LEU166      0.0297
    198  CG        19.2390   41.0370   51.5440 C.3   166  LEU166      0.0022
    199  CD1       18.8500   42.5010   51.4710 C.3   166  LEU166      0.0001
    200  CD2       20.1610   40.6800   50.3830 C.3   166  LEU166      0.0001
@<TRIPOS>BOND
     1   169   168    2
     2   134   135    1
     3   146   147    1
     4   146   143    1
     5   168   167    1
     6   125   124    2
     7   135   136    1
     8   135   138    1
     9   142   143    1
    10   142   136   am
    11   124   123    1
    12   143   144    1
    13   136   137    2
    14   167   170    1
    15   167   166    1
    16   151   150    2
    17   138   139    1
    18   170   171    1
    19   148   144   am
    20   148   149    1
    21   175   181    1
    22   175   176    1
    23   117   116    2
    24   123   122    1
    25   123   126    1
    26   144   145    2
    27   181   180    1
    28   150   149    1
    29   140   139    1
    30    68    69    1
    31   149   152    1
    32   116   115    1
    33   176   179    1
    34   176   177    1
    35   139   141    1
    36   172   171    1
    37   172   173    1
    38    60    59    2
    39    73    72    1
    40    65    63   ar
    41    65    67   ar
    42    80    79    1
    43   126   127    1
    44    63    62   ar
    45   180   179    1
    46    69    72    1
    47    69    70    1
    48   110   109    2
    49   177   178    2
    50   177   182   am
    51   152   153    1
    52   128   127   ar
    53   128   130   ar
    54    59    58    1
    55    67    66   ar
    56   174   173    1
    57    79    78    1
    58    79    81    1
    59   115   118    1
    60   115   114    1
    61    74    70   am
    62    74    75    1
    63    58    61    1
    64    58    57    1
    65   127   129   ar
    66   182   183    1
    67    78    75    1
    68    62    61    1
    69    62    64   ar
    70   157   156    2
    71    70    71    2
    72     1     2    1
    73   118   119    1
    74   109   114   am
    75   109   108    1
    76    77    76    2
    77   130   132   ar
    78    75    76    1
    79    66    64   ar
    80    30    28    1
    81   156   155    1
    82   129   131   ar
    83   183   184    1
    84    76    82   am
    85     2     3    1
    86    34    33    2
    87   108   107    1
    88   108   111    1
    89   121   119   ar
    90   119   120   ar
    91    32    33    1
    92    32    31    1
    93    27    26    2
    94   132   131   ar
    95   132   133    1
    96     3     4    2
    97   165   164    1
    98    28    29    1
    99    28    25    1
   100   163   164   ar
   101   163   161   ar
   102   185   184    2
   103    26    31   am
   104    26    25    1
   105   184   186   am
   106    82    83    1
   107   164   162   ar
   108   155   154    1
   109   155   158    1
   110   200   198    1
   111   112   111    1
   112   161   159   ar
   113   111   113    1
   114    83    84    1
   115   162   160   ar
   116    25    24    1
   117   159   160   ar
   118   159   158    1
   119    35    36    1
   120   199   198    1
   121   186   187    1
   122   198   197    1
   123    36    39    1
   124    36    37    1
   125     5     6    1
   126    84    86   am
   127    84    85    2
   128    24    17   am
   129    86    87    1
   130   189   188    2
   131   187   188    1
   132   187   190    1
   133    39    40    1
   134   188   193   am
   135   197   194    1
   136    37    46   am
   137    37    38    2
   138    49    48    2
   139    18    17    2
   140   193   194    1
   141   194   195    1
   142    46    47    1
   143    17    16    1
   144    11    12    1
   145    11     7   am
   146    14    13    2
   147    92    90    1
   148    89    88    2
   149     6     7    1
   150     6     9    1
   151    40    41    1
   152    48    47    1
   153    12    13    1
   154   192   190    1
   155    13    15   am
   156   190   191    1
   157    87    90    1
   158    87    88    1
   159    10     9    1
   160    47    50    1
   161     7     8    2
   162    90    91    1
   163   195   196    2
   164    15    16    1
   165    41    42    1
   166    16    19    1
   167    42    43    2
   168    19    20    1
   169    50    51    1
   170    51    52    1
   171    43    44    1
   172    43    45    1
   173   106   103    1
   174    52    53    1
   175    53    54    2
   176    20    21    1
   177   105   104    2
   178    22    21   ar
   179    56    54    1
   180    54    55    1
   181   104   103    1
   182    21    23   ar
   183   103   102    1
   184   101   100    1
   185   102    95   am
   186   100    99    1
   187    95    96    2
   188    95    94    1
   189    97    94    1
   190    97    98    1
   191    99    98    1
   192    93    94    1
