@<TRIPOS>MOLECULE
tmp/2bkjB02.pdb
 106 99 0 0 0
SMALL
GASTEIGER

@<TRIPOS>ATOM
      1  N          4.3010   23.0770   29.4570 N.3    14  ARG14      -0.1245
      2  CA         5.7180   22.9470   29.7840 C.3    14  ARG14       0.1563
      3  C          6.0710   23.4640   31.1820 C.2    14  ARG14       0.2260
      4  O          7.2340   23.7400   31.4790 O.2    14  ARG14      -0.2867
      5  CB         6.5600   23.6610   28.7220 C.3    14  ARG14       0.0307
      6  CG         6.3720   23.0990   27.3170 C.3    14  ARG14       0.0489
      7  CD         7.1690   23.8750   26.2880 C.3    14  ARG14       0.2205
      8  NE         6.9940   23.3380   24.9390 N.pl3  14  ARG14      -0.0865
      9  CZ         6.0780   23.7600   24.0690 C.cat  14  ARG14       0.5346
     10  NH1        5.2370   24.7320   24.3940 N.pl3  14  ARG14       0.1354
     11  NH2        6.0090   23.2100   22.8630 N.pl3  14  ARG14       0.1354
     12  N         17.8730   15.7350   26.2680 N.3    63  ALA63      -0.1231
     13  CA        16.7800   16.2890   25.4750 C.3    63  ALA63       0.1694
     14  C         17.0080   17.7540   25.0960 C.2    63  ALA63       0.2593
     15  O         16.1240   18.3980   24.5270 O.2    63  ALA63      -0.2718
     16  CB        15.4590   16.1330   26.2230 C.3    63  ALA63       0.0304
     17  N         18.1920   18.2730   25.4080 N.am   64  GLY64      -0.1942
     18  CA        18.5050   19.6540   25.0810 C.3    64  GLY64       0.2014
     19  C         18.2210   20.6330   26.2040 C.2    64  GLY64       0.2639
     20  O         17.8300   21.7760   25.9580 O.2    64  GLY64      -0.2714
     21  N         18.4180   20.1750   27.4370 N.am   65  ASN65      -0.1958
     22  CA        18.2060   20.9830   28.6340 C.3    65  ASN65       0.1819
     23  C         16.7680   21.4590   28.8120 C.2    65  ASN65       0.2621
     24  O         16.5290   22.5960   29.2210 O.2    65  ASN65      -0.2715
     25  CB        19.1680   22.1770   28.6540 C.3    65  ASN65       0.1195
     26  CG        20.6190   21.7510   28.5940 C.2    65  ASN65       0.2630
     27  OD1       21.0680   20.9370   29.3970 O.2    65  ASN65      -0.2716
     28  ND2       21.3570   22.2810   27.6220 N.am   65  ASN65      -0.0877
     29  N         15.8110   20.5910   28.5020 N.am   66  GLN66      -0.1977
     30  CA        14.4020   20.9360   28.6560 C.3    66  GLN66       0.1601
     31  C         13.9830   20.5790   30.0780 C.2    66  GLN66       0.2287
     32  O         13.6500   19.4320   30.3760 O.2    66  GLN66      -0.2864
     33  CB        13.5550   20.2130   27.6050 C.3    66  GLN66       0.0394
     34  CG        13.9370   20.5960   26.1740 C.3    66  GLN66       0.0908
     35  CD        12.9790   20.0500   25.1360 C.2    66  GLN66       0.2608
     36  OE1       11.8160   20.4410   25.0850 O.2    66  GLN66      -0.2717
     37  NE2       13.4650   19.1470   24.2960 N.am   66  GLN66      -0.0878
     38  N         11.3760   20.8770   31.9850 N.3    68  TYR68      -0.1241
     39  CA        10.1070   20.2080   32.2720 C.3    68  TYR68       0.1605
     40  C         10.1660   18.6820   32.2190 C.2    68  TYR68       0.2264
     41  O          9.2360   18.0060   32.6590 O.2    68  TYR68      -0.2867
     42  CB         8.9880   20.7390   31.3720 C.3    68  TYR68       0.0534
     43  CG         9.4400   21.2310   30.0150 C.ar   68  TYR68      -0.0201
     44  CD1        9.9400   22.5230   29.8580 C.ar   68  TYR68      -0.0009
     45  CD2        9.3410   20.4190   28.8860 C.ar   68  TYR68      -0.0009
     46  CE1       10.3220   22.9990   28.6090 C.ar   68  TYR68       0.0417
     47  CE2        9.7200   20.8860   27.6300 C.ar   68  TYR68       0.0417
     48  CZ        10.2090   22.1760   27.5000 C.ar   68  TYR68       0.1957
     49  OH        10.5680   22.6570   26.2630 O.3    68  TYR68      -0.2866
     50  N         10.4720   15.1730   21.6180 N.3   129  GLY129     -0.1210
     51  CA        11.2400   14.5810   20.5390 C.3   129  GLY129      0.1956
     52  C         12.7160   14.8790   20.7240 C.2   129  GLY129      0.2612
     53  O         13.5640   14.2520   20.0890 O.2   129  GLY129     -0.2717
     54  N         13.0120   15.8200   21.6250 N.am  130  GLY130     -0.1956
     55  CA        14.3800   16.2190   21.9130 C.3   130  GLY130      0.1869
     56  C         15.2960   15.0970   22.3690 C.2   130  GLY130      0.2309
     57  O         16.5190   15.2420   22.3330 O.2   130  GLY130     -0.2863
     58  N         18.1510   13.9100   20.1840 N.3   133  ASN133     -0.1240
     59  CA        19.3940   14.6810   20.0590 C.3   133  ASN133      0.1653
     60  C         20.5590   13.7710   20.4450 C.2   133  ASN133      0.2266
     61  O         21.6200   13.7970   19.8210 O.2   133  ASN133     -0.2867
     62  CB        19.4060   15.8890   21.0080 C.3   133  ASN133      0.1155
     63  CG        18.4940   17.0180   20.5560 C.2   133  ASN133      0.2627
     64  OD1       17.9220   16.9850   19.4670 O.2   133  ASN133     -0.2716
     65  ND2       18.3650   18.0340   21.4000 N.am  133  ASN133     -0.0877
     66  N          1.8320   35.6390   18.3690 N.3   199  TYR199     -0.1241
     67  CA         3.0250   35.9980   19.1260 C.3   199  TYR199      0.1605
     68  C          3.1060   37.5030   19.3500 C.2   199  TYR199      0.2264
     69  O          3.5680   37.9590   20.3970 O.2   199  TYR199     -0.2867
     70  CB         4.2850   35.5100   18.4050 C.3   199  TYR199      0.0534
     71  CG         4.4880   34.0130   18.4780 C.ar  199  TYR199     -0.0201
     72  CD1        4.8610   33.4000   19.6740 C.ar  199  TYR199     -0.0009
     73  CD2        4.3010   33.2070   17.3550 C.ar  199  TYR199     -0.0009
     74  CE1        5.0420   32.0200   19.7520 C.ar  199  TYR199      0.0417
     75  CE2        4.4790   31.8260   17.4210 C.ar  199  TYR199      0.0417
     76  CZ         4.8480   31.2400   18.6210 C.ar  199  TYR199      0.1957
     77  OH         5.0200   29.8760   18.6920 O.3   199  TYR199     -0.2866
     78  N         10.9510   30.3680    9.6480 N.3   205  GLU205     -0.1245
     79  CA        11.5380   29.6080   10.7440 C.3   205  GLU205      0.1567
     80  C         11.6170   28.1120   10.4490 C.2   205  GLU205      0.2260
     81  O         12.6910   27.5180   10.5530 O.2   205  GLU205     -0.2867
     82  CB        10.7570   29.8460   12.0390 C.3   205  GLU205      0.0388
     83  CG        11.3570   29.2100   13.2780 C.3   205  GLU205      0.1160
     84  CD        12.5400   29.9300   13.8080 C.2   205  GLU205      0.3649
     85  OE1       12.5250   31.1880   13.8380 O.co2 205  GLU205     -0.2457
     86  OE2       13.4370   29.1740   14.3250 O.co2 205  GLU205     -0.2457
     87  N         15.0810   25.8170    9.3590 N.3   209  LYS209     -0.1245
     88  CA        15.5210   24.6520   10.1120 C.3   209  LYS209      0.1561
     89  C         15.7680   23.4840    9.1620 C.2   209  LYS209      0.2260
     90  O         16.7630   22.7660    9.2830 O.2   209  LYS209     -0.2867
     91  CB        14.4500   24.2630   11.1300 C.3   209  LYS209      0.0271
     92  CG        14.7030   22.9420   11.8330 C.3   209  LYS209      0.0035
     93  CD        13.5150   22.5710   12.7110 C.3   209  LYS209      0.0206
     94  CE        13.7970   21.3330   13.5550 C.3   209  LYS209      0.1093
     95  NZ        14.7100   21.6780   14.6850 N.3   209  LYS209     -0.1314
     96  N         19.1310   16.1110   12.4230 N.3   215  ARG215     -0.1245
     97  CA        19.6370   14.9720   13.2000 C.3   215  ARG215      0.1563
     98  C         20.1880   13.8420   12.3230 C.2   215  ARG215      0.2260
     99  O         19.6490   12.7330   12.3070 O.2   215  ARG215     -0.2867
    100  CB        18.5470   14.4420   14.1410 C.3   215  ARG215      0.0307
    101  CG        18.0710   15.4560   15.1660 C.3   215  ARG215      0.0489
    102  CD        17.0870   14.8400   16.1520 C.3   215  ARG215      0.2205
    103  NE        16.7090   15.7860   17.2010 N.pl3 215  ARG215     -0.0865
    104  CZ        15.4570   16.1020   17.5210 C.cat 215  ARG215      0.5346
    105  NH1       14.4380   15.5510   16.8790 N.pl3 215  ARG215      0.1354
    106  NH2       15.2220   16.9810   18.4830 N.pl3 215  ARG215      0.1354
@<TRIPOS>BOND
     1    89    90    2
     2    89    88    1
     3    87    88    1
     4    78    79    1
     5    88    91    1
     6    80    81    2
     7    80    79    1
     8    79    82    1
     9    91    92    1
    10    92    93    1
    11    82    83    1
    12    99    98    2
    13    98    97    1
    14    96    97    1
    15    93    94    1
    16    97   100    1
    17    83    84    1
    18    94    95    1
    19    84    85   ar
    20    84    86   ar
    21   100   101    1
    22   101   102    1
    23   102   103    1
    24   105   104    1
    25   103   104    2
    26    73    75   ar
    27    73    71   ar
    28    75    76   ar
    29   104   106    1
    30    66    67    1
    31    70    71    1
    32    70    67    1
    33    71    72   ar
    34    76    77    1
    35    76    74   ar
    36    67    68    1
    37    68    69    2
    38    64    63    2
    39    72    74   ar
    40    61    60    2
    41    59    58    1
    42    59    60    1
    43    59    62    1
    44    53    52    2
    45    51    52    1
    46    51    50    1
    47    63    62    1
    48    63    65   am
    49    52    54   am
    50    54    55    1
    51    55    56    1
    52    57    56    2
    53    11     9    1
    54     9    10    1
    55     9     8    2
    56    37    35   am
    57    15    14    2
    58     8     7    1
    59    18    17    1
    60    18    19    1
    61    36    35    2
    62    14    17   am
    63    14    13    1
    64    35    34    1
    65    13    16    1
    66    13    12    1
    67    20    19    2
    68    34    33    1
    69    19    21   am
    70    49    48    1
    71     7     6    1
    72     6     5    1
    73    21    22    1
    74    48    47   ar
    75    48    46   ar
    76    33    30    1
    77    28    26   am
    78    47    45   ar
    79    29    30    1
    80    29    23   am
    81    26    25    1
    82    26    27    2
    83    46    44   ar
    84    22    25    1
    85    22    23    1
    86    30    31    1
    87     5     2    1
    88    23    24    2
    89    45    43   ar
    90     1     2    1
    91     2     3    1
    92    44    43   ar
    93    43    42    1
    94    31    32    2
    95     3     4    2
    96    42    39    1
    97    38    39    1
    98    40    39    1
    99    40    41    2
