@<TRIPOS>MOLECULE
tmp/2bkjB01.pdb
 145 139 0 0 0
SMALL
GASTEIGER

@<TRIPOS>ATOM
      1  N         -6.5760   21.4190   23.2160 N.3    10  HIS10      -0.1226
      2  CA        -5.1640   21.0950   23.3850 C.3    10  HIS10       0.1752
      3  C         -4.1570   22.2220   23.1960 C.2    10  HIS10       0.2596
      4  O         -4.2680   23.0440   22.2870 O.2    10  HIS10      -0.2718
      5  CB        -4.7500   19.9290   22.4780 C.3    10  HIS10       0.0759
      6  CG        -3.2640   19.7840   22.3290 C.ar   10  HIS10       0.0818
      7  ND1       -2.4610   19.2830   23.3300 N.ar   10  HIS10      -0.2268
      8  CD2       -2.4290   20.1480   21.3260 C.ar   10  HIS10       0.1154
      9  CE1       -1.1950   19.3480   22.9530 C.ar   10  HIS10       0.1986
     10  NE2       -1.1490   19.8690   21.7420 N.ar   10  HIS10      -0.2212
     11  N         -3.1430   22.1910   24.0540 N.am   11  ARG11      -0.1966
     12  CA        -2.0150   23.1100   24.0330 C.3    11  ARG11       0.1729
     13  C         -0.9350   22.4130   24.8560 C.2    11  ARG11       0.2616
     14  O         -1.2360   21.7680   25.8600 O.2    11  ARG11      -0.2715
     15  CB        -2.3640   24.4910   24.6140 C.3    11  ARG11       0.0348
     16  CG        -2.8080   24.4940   26.0560 C.3    11  ARG11       0.0492
     17  CD        -4.2980   24.7510   26.1700 C.3    11  ARG11       0.2205
     18  NE        -4.8360   24.1630   27.3930 N.pl3  11  ARG11      -0.0865
     19  CZ        -4.7160   24.6980   28.6020 C.cat  11  ARG11       0.5346
     20  NH1       -4.0820   25.8510   28.7640 N.pl3  11  ARG11       0.1354
     21  NH2       -5.2030   24.0610   29.6580 N.pl3  11  ARG11       0.1354
     22  N          0.3020   22.4520   24.3730 N.am   12  SER12      -0.1950
     23  CA         1.4100   21.8200   25.0800 C.3    12  SER12       0.1924
     24  C          1.6980   22.5460   26.3830 C.2    12  SER12       0.2314
     25  O          1.7840   23.7750   26.4110 O.2    12  SER12      -0.2863
     26  CB         2.6680   21.8050   24.2130 C.3    12  SER12       0.2116
     27  OG         2.5040   20.9530   23.0960 O.3    12  SER12      -0.2180
     28  N          4.3010   23.0770   29.4570 N.3    14  ARG14      -0.1245
     29  CA         5.7180   22.9470   29.7840 C.3    14  ARG14       0.1563
     30  C          6.0710   23.4640   31.1820 C.2    14  ARG14       0.2260
     31  O          7.2340   23.7400   31.4790 O.2    14  ARG14      -0.2867
     32  CB         6.5600   23.6610   28.7220 C.3    14  ARG14       0.0307
     33  CG         6.3720   23.0990   27.3170 C.3    14  ARG14       0.0489
     34  CD         7.1690   23.8750   26.2880 C.3    14  ARG14       0.2205
     35  NE         6.9940   23.3380   24.9390 N.pl3  14  ARG14      -0.0865
     36  CZ         6.0780   23.7600   24.0690 C.cat  14  ARG14       0.5346
     37  NH1        5.2370   24.7320   24.3940 N.pl3  14  ARG14       0.1354
     38  NH2        6.0090   23.2100   22.8630 N.pl3  14  ARG14       0.1354
     39  N         15.8110   20.5910   28.5020 N.3    66  GLN66      -0.1245
     40  CA        14.4020   20.9360   28.6560 C.3    66  GLN66       0.1566
     41  C         13.9830   20.5790   30.0780 C.2    66  GLN66       0.2260
     42  O         13.6500   19.4320   30.3760 O.2    66  GLN66      -0.2867
     43  CB        13.5550   20.2130   27.6050 C.3    66  GLN66       0.0367
     44  CG        13.9370   20.5960   26.1740 C.3    66  GLN66       0.0905
     45  CD        12.9790   20.0500   25.1360 C.2    66  GLN66       0.2608
     46  OE1       11.8160   20.4410   25.0850 O.2    66  GLN66      -0.2717
     47  NE2       13.4650   19.1470   24.2960 N.am   66  GLN66      -0.0878
     48  N         11.3760   20.8770   31.9850 N.3    68  TYR68      -0.1241
     49  CA        10.1070   20.2080   32.2720 C.3    68  TYR68       0.1605
     50  C         10.1660   18.6820   32.2190 C.2    68  TYR68       0.2264
     51  O          9.2360   18.0060   32.6590 O.2    68  TYR68      -0.2867
     52  CB         8.9880   20.7390   31.3720 C.3    68  TYR68       0.0534
     53  CG         9.4400   21.2310   30.0150 C.ar   68  TYR68      -0.0201
     54  CD1        9.9400   22.5230   29.8580 C.ar   68  TYR68      -0.0009
     55  CD2        9.3410   20.4190   28.8860 C.ar   68  TYR68      -0.0009
     56  CE1       10.3220   22.9990   28.6090 C.ar   68  TYR68       0.0417
     57  CE2        9.7200   20.8860   27.6300 C.ar   68  TYR68       0.0417
     58  CZ        10.2090   22.1760   27.5000 C.ar   68  TYR68       0.1957
     59  OH        10.5680   22.6570   26.2630 O.3    68  TYR68      -0.2866
     60  N          3.2580   17.2960   27.1210 N.3   126  VAL126     -0.1231
     61  CA         3.9990   17.7240   25.9460 C.3   126  VAL126      0.1692
     62  C          4.9000   16.5920   25.4580 C.2   126  VAL126      0.2592
     63  O          5.5010   15.8770   26.2620 O.2   126  VAL126     -0.2718
     64  CB         4.8550   18.9920   26.2560 C.3   126  VAL126      0.0266
     65  CG1        5.8900   18.6930   27.3320 C.3   126  VAL126      0.0020
     66  CG2        5.5200   19.5200   24.9890 C.3   126  VAL126      0.0020
     67  N          4.9240   16.3830   24.1430 N.am  127  TYR127     -0.1962
     68  CA         5.7720   15.3550   23.5480 C.3   127  TYR127      0.1771
     69  C          7.2020   15.8550   23.6210 C.2   127  TYR127      0.2619
     70  O          7.4450   17.0550   23.5330 O.2   127  TYR127     -0.2715
     71  CB         5.4200   15.1350   22.0770 C.3   127  TYR127      0.0574
     72  CG         4.1730   14.3310   21.8230 C.ar  127  TYR127     -0.0198
     73  CD1        2.9240   14.9440   21.7770 C.ar  127  TYR127     -0.0009
     74  CD2        4.2440   12.9570   21.5970 C.ar  127  TYR127     -0.0009
     75  CE1        1.7740   14.2130   21.5090 C.ar  127  TYR127      0.0417
     76  CE2        3.1000   12.2130   21.3280 C.ar  127  TYR127      0.0417
     77  CZ         1.8680   12.8480   21.2860 C.ar  127  TYR127      0.1957
     78  OH         0.7310   12.1250   21.0170 O.3   127  TYR127     -0.2866
     79  N          8.1480   14.9360   23.7730 N.am  128  ILE128     -0.1963
     80  CA         9.5540   15.3080   23.8480 C.3   128  ILE128      0.1727
     81  C         10.3670   14.5660   22.7950 C.2   128  ILE128      0.2617
     82  O         10.8510   13.4570   23.0260 O.2   128  ILE128     -0.2715
     83  CB        10.1430   15.0500   25.2650 C.3   128  ILE128      0.0290
     84  CG1        9.3930   15.8810   26.3100 C.3   128  ILE128      0.0022
     85  CG2       11.6330   15.3960   25.3010 C.3   128  ILE128      0.0023
     86  CD1        9.5430   17.3850   26.1380 C.3   128  ILE128      0.0001
     87  N         10.4720   15.1730   21.6180 N.am  129  GLY129     -0.1940
     88  CA        11.2400   14.5810   20.5390 C.3   129  GLY129      0.2014
     89  C         12.7160   14.8790   20.7240 C.2   129  GLY129      0.2639
     90  O         13.5640   14.2520   20.0890 O.2   129  GLY129     -0.2714
     91  N         13.0120   15.8200   21.6250 N.am  130  GLY130     -0.1954
     92  CA        14.3800   16.2190   21.9130 C.3   130  GLY130      0.1869
     93  C         15.2960   15.0970   22.3690 C.2   130  GLY130      0.2309
     94  O         16.5190   15.2420   22.3330 O.2   130  GLY130     -0.2863
     95  N         15.8980   12.4980   20.8870 N.3   132  ARG132     -0.1245
     96  CA        16.6310   12.0490   19.7100 C.3   132  ARG132      0.1563
     97  C         17.9400   12.8030   19.4700 C.2   132  ARG132      0.2260
     98  O         18.7490   12.3790   18.6480 O.2   132  ARG132     -0.2867
     99  CB        15.7380   12.0810   18.4610 C.3   132  ARG132      0.0307
    100  CG        14.5130   11.1720   18.5620 C.3   132  ARG132      0.0489
    101  CD        13.9670   10.7600   17.1910 C.3   132  ARG132      0.2205
    102  NE        13.4780   11.8870   16.3980 N.pl3 132  ARG132     -0.0865
    103  CZ        12.2860   12.4590   16.5480 C.cat 132  ARG132      0.5346
    104  NH1       11.4330   12.0200   17.4670 N.pl3 132  ARG132      0.1354
    105  NH2       11.9440   13.4770   15.7710 N.pl3 132  ARG132      0.1354
    106  N         10.5110    9.0160   21.1260 N.3   152  PHE152     -0.1241
    107  CA        10.2010   10.2700   21.8090 C.3   152  PHE152      0.1605
    108  C          9.6970   10.0270   23.2220 C.2   152  PHE152      0.2264
    109  O          9.3290    8.9100   23.5760 O.2   152  PHE152     -0.2867
    110  CB         9.1430   11.0630   21.0270 C.3   152  PHE152      0.0534
    111  CG         7.8600   10.3090   20.7980 C.ar  152  PHE152     -0.0203
    112  CD1        6.8420   10.3320   21.7460 C.ar  152  PHE152     -0.0042
    113  CD2        7.6740    9.5710   19.6320 C.ar  152  PHE152     -0.0042
    114  CE1        5.6580    9.6300   21.5380 C.ar  152  PHE152     -0.0003
    115  CE2        6.4920    8.8640   19.4140 C.ar  152  PHE152     -0.0003
    116  CZ         5.4830    8.8940   20.3690 C.ar  152  PHE152     -0.0000
    117  N         -2.3900   29.9330   25.1920 N.3   164  GLU164     -0.1245
    118  CA        -3.5010   30.0560   24.2600 C.3   164  GLU164      0.1567
    119  C         -3.3180   28.9930   23.1790 C.2   164  GLU164      0.2260
    120  O         -2.1920   28.5810   22.8870 O.2   164  GLU164     -0.2867
    121  CB        -3.5190   31.4520   23.6290 C.3   164  GLU164      0.0388
    122  CG        -4.0140   32.5860   24.5310 C.3   164  GLU164      0.1160
    123  CD        -2.9490   33.1980   25.3660 C.2   164  GLU164      0.3649
    124  OE1       -1.8190   32.7020   25.3600 O.co2 164  GLU164     -0.2457
    125  OE2       -3.2220   34.1770   26.0120 O.co2 164  GLU164     -0.2457
    126  N         -2.7740   27.3100   19.7550 N.3   166  LYS166     -0.1245
    127  CA        -2.0450   27.6950   18.5460 C.3   166  LYS166      0.1561
    128  C         -2.8040   27.3430   17.2770 C.2   166  LYS166      0.2260
    129  O         -3.2620   26.2090   17.1130 O.2   166  LYS166     -0.2867
    130  CB        -0.7060   26.9670   18.4670 C.3   166  LYS166      0.0271
    131  CG         0.4850   27.6940   19.0200 C.3   166  LYS166      0.0035
    132  CD         1.7430   26.9740   18.5730 C.3   166  LYS166      0.0206
    133  CE         2.9250   27.3800   19.4190 C.3   166  LYS166      0.1093
    134  NZ         2.5860   27.2250   20.8660 N.3   166  LYS166     -0.1314
    135  N         -3.4210   26.3420   13.3620 N.3   168  ARG168     -0.1245
    136  CA        -2.7370   25.5090   12.3780 C.3   168  ARG168      0.1563
    137  C         -3.0690   26.0070   10.9790 C.2   168  ARG168      0.2260
    138  O         -3.9130   26.8900   10.8080 O.2   168  ARG168     -0.2867
    139  CB        -3.1900   24.0490   12.4880 C.3   168  ARG168      0.0307
    140  CG        -2.3540   23.1700   13.3970 C.3   168  ARG168      0.0489
    141  CD        -2.5090   23.5410   14.8530 C.3   168  ARG168      0.2205
    142  NE        -1.9550   22.5080   15.7240 N.pl3 168  ARG168     -0.0865
    143  CZ        -1.5330   22.7210   16.9660 C.cat 168  ARG168      0.5346
    144  NH1       -1.5940   23.9380   17.4890 N.pl3 168  ARG168      0.1354
    145  NH2       -1.0740   21.7130   17.6940 N.pl3 168  ARG168      0.1354
@<TRIPOS>BOND
     1   138   137    2
     2   137   136    1
     3   136   139    1
     4   136   135    1
     5   139   140    1
     6   140   141    1
     7   141   142    1
     8   142   143    2
     9   105   103    1
    10   102   103    2
    11   102   101    1
    12   103   104    1
    13   143   144    1
    14   143   145    1
    15   129   128    2
    16   101   100    1
    17   128   127    1
    18    99   100    1
    19    99    96    1
    20   130   127    1
    21   130   131    1
    22   127   126    1
    23   132   131    1
    24   132   133    1
    25    98    97    2
    26   115   113   ar
    27   115   116   ar
    28   133   134    1
    29    97    96    1
    30   113   111   ar
    31    96    95    1
    32    90    89    2
    33   116   114   ar
    34    88    89    1
    35    88    87    1
    36    89    91   am
    37   111   110    1
    38   111   112   ar
    39    78    77    1
    40   110   107    1
    41   106   107    1
    42    77    76   ar
    43    77    75   ar
    44     8    10   ar
    45     8     6   ar
    46    76    74   ar
    47    75    73   ar
    48   114   112   ar
    49    74    72   ar
    50    87    81   am
    51    91    92    1
    52    10     9   ar
    53    73    72   ar
    54   107   108    1
    55    72    71    1
    56    92    93    1
    57    71    68    1
    58     4     3    2
    59     6     5    1
    60     6     7   ar
    61    94    93    2
    62     5     2    1
    63    81    82    2
    64    81    80    1
    65    38    36    1
    66   120   119    2
    67     9     7   ar
    68    27    26    1
    69   119   118    1
    70     3     2    1
    71     3    11   am
    72     1     2    1
    73   108   109    2
    74    70    69    2
    75    68    69    1
    76    68    67    1
    77    69    79   am
    78   121   118    1
    79   121   122    1
    80    79    80    1
    81    80    83    1
    82    12    11    1
    83    12    15    1
    84    12    13    1
    85    36    37    1
    86    36    35    2
    87    67    62   am
    88    26    23    1
    89   118   117    1
    90    47    45   am
    91    22    13   am
    92    22    23    1
    93   122   123    1
    94    15    16    1
    95    13    14    2
    96    35    34    1
    97    66    64    1
    98    23    24    1
    99    46    45    2
   100    45    44    1
   101    83    85    1
   102    83    84    1
   103   124   123   ar
   104   123   125   ar
   105    62    61    1
   106    62    63    2
   107    61    64    1
   108    61    60    1
   109    16    17    1
   110    86    84    1
   111    17    18    1
   112    44    43    1
   113    64    65    1
   114    59    58    1
   115    34    33    1
   116    24    25    2
   117    33    32    1
   118    18    19    2
   119    58    57   ar
   120    58    56   ar
   121    43    40    1
   122    57    55   ar
   123    39    40    1
   124    19    20    1
   125    19    21    1
   126    56    54   ar
   127    40    41    1
   128    32    29    1
   129    55    53   ar
   130    28    29    1
   131    29    30    1
   132    54    53   ar
   133    53    52    1
   134    41    42    2
   135    30    31    2
   136    52    49    1
   137    48    49    1
   138    50    49    1
   139    50    51    2
