@<TRIPOS>MOLECULE
tmp/2bkjB00.pdb
 65 62 0 0 0
SMALL
GASTEIGER

@<TRIPOS>ATOM
      1  N         -5.5310    0.6820   24.2360 N.3    35  ALA35      -0.1231
      2  CA        -6.7620    0.5490   23.4590 C.3    35  ALA35       0.1694
      3  C         -6.6300    1.0700   22.0260 C.2    35  ALA35       0.2592
      4  O         -7.5790    1.0000   21.2460 O.2    35  ALA35      -0.2718
      5  CB        -7.9090    1.2490   24.1690 C.3    35  ALA35       0.0304
      6  N         -5.4520    1.5840   21.6850 N.am   36  ALA36      -0.1966
      7  CA        -5.1880    2.1120   20.3490 C.3    36  ALA36       0.1728
      8  C         -5.0390    0.9990   19.3110 C.2    36  ALA36       0.2617
      9  O         -4.6510   -0.1250   19.6440 O.2    36  ALA36      -0.2715
     10  CB        -3.9330    2.9720   20.3700 C.3    36  ALA36       0.0334
     11  N         -5.3520    1.3180   18.0540 N.am   37  SER37      -0.1936
     12  CA        -5.2340    0.3600   16.9550 C.3    37  SER37       0.2055
     13  C         -3.7800   -0.0790   16.8050 C.2    37  SER37       0.2644
     14  O         -2.8580    0.6940   17.0770 O.2    37  SER37      -0.2714
     15  CB        -5.7100    0.9800   15.6360 C.3    37  SER37       0.2130
     16  OG        -7.1010    1.2410   15.6480 O.3    37  SER37      -0.2179
     17  N         -3.5820   -1.3120   16.3530 N.am   38  SER38      -0.1935
     18  CA        -2.2410   -1.8550   16.1700 C.3    38  SER38       0.2055
     19  C         -2.1130   -2.4920   14.7900 C.2    38  SER38       0.2644
     20  O         -2.9650   -3.2850   14.3870 O.2    38  SER38      -0.2714
     21  CB        -1.9440   -2.8930   17.2580 C.3    38  SER38       0.2130
     22  OG        -0.6570   -3.4590   17.0930 O.3    38  SER38      -0.2179
     23  N         -1.0500   -2.1370   14.0710 N.am   39  SER39      -0.1935
     24  CA        -0.8020   -2.6710   12.7330 C.3    39  SER39       0.2055
     25  C         -0.6240   -4.1850   12.7680 C.2    39  SER39       0.2644
     26  O          0.3230   -4.6890   13.3740 O.2    39  SER39      -0.2714
     27  CB         0.4440   -2.0280   12.1160 C.3    39  SER39       0.2130
     28  OG         0.2740   -0.6360   11.9270 O.3    39  SER39      -0.2179
     29  N         -1.5450   -4.8970   12.1180 N.am   40  SER40      -0.1935
     30  CA        -1.5290   -6.3600   12.0520 C.3    40  SER40       0.2055
     31  C         -1.5050   -6.9920   13.4420 C.2    40  SER40       0.2642
     32  O         -1.1180   -8.1500   13.6010 O.2    40  SER40      -0.2714
     33  CB        -0.3290   -6.8530   11.2350 C.3    40  SER40       0.2130
     34  OG        -0.3300   -6.2910    9.9360 O.3    40  SER40      -0.2179
     35  N         -1.9310   -6.2180   14.4400 N.am   41  MET41      -0.1976
     36  CA        -1.9660   -6.6550   15.8320 C.3    41  MET41       0.1605
     37  C         -0.5690   -7.0860   16.2950 C.2    41  MET41       0.2287
     38  O         -0.4210   -7.9490   17.1600 O.2    41  MET41      -0.2864
     39  CB        -2.9850   -7.7930   16.0030 C.3    41  MET41       0.0413
     40  CG        -3.4240   -8.0280   17.4370 C.3    41  MET41       0.0598
     41  SD        -4.0460   -6.5190   18.1990 S.3    41  MET41      -0.1393
     42  CE        -4.8080   -7.1870   19.6720 C.3    41  MET41       0.0692
     43  N          4.5150    4.9680   13.3400 N.3   105  VAL105     -0.1231
     44  CA         3.0940    5.2710   13.2090 C.3   105  VAL105      0.1692
     45  C          2.3040    4.7880   14.4210 C.2   105  VAL105      0.2592
     46  O          1.5680    5.5620   15.0310 O.2   105  VAL105     -0.2718
     47  CB         2.4960    4.6410   11.9260 C.3   105  VAL105      0.0266
     48  CG1        0.9780    4.8010   11.9070 C.3   105  VAL105      0.0020
     49  CG2        3.1050    5.2900   10.6930 C.3   105  VAL105      0.0020
     50  N          2.4720    3.5140   14.7740 N.am  106  ASP106     -0.1974
     51  CA         1.7650    2.9300   15.9120 C.3   106  ASP106      0.1709
     52  C          2.0930    3.6170   17.2350 C.2   106  ASP106      0.2293
     53  O          1.2360    3.7120   18.1120 O.2   106  ASP106     -0.2864
     54  CB         2.0230    1.4210   16.0000 C.3   106  ASP106      0.1436
     55  CG         1.2860    0.6320   14.9160 C.2   106  ASP106      0.3671
     56  OD1        0.8770    1.2250   13.8940 O.co2 106  ASP106     -0.2456
     57  OD2        1.1120   -0.5910   15.0870 O.co2 106  ASP106     -0.2456
     58  N          0.0770    6.8720   17.4360 N.3   109  ILE109     -0.1245
     59  CA        -1.3250    6.5590   17.7040 C.3   109  ILE109      0.1561
     60  C         -1.5420    6.2730   19.1900 C.2   109  ILE109      0.2260
     61  O         -2.4550    6.8180   19.8080 O.2   109  ILE109     -0.2867
     62  CB        -1.7820    5.3240   16.8950 C.3   109  ILE109      0.0252
     63  CG1       -1.6410    5.5930   15.3950 C.3   109  ILE109      0.0019
     64  CG2       -3.2200    4.9560   17.2490 C.3   109  ILE109      0.0019
     65  CD1       -2.0100    4.4100   14.5260 C.3   109  ILE109      0.0001
@<TRIPOS>BOND
     1    34    33    1
     2    49    47    1
     3    33    30    1
     4    48    47    1
     5    47    44    1
     6    28    27    1
     7    30    29    1
     8    30    31    1
     9    27    24    1
    10    29    25   am
    11    24    25    1
    12    24    23    1
    13    25    26    2
    14    44    43    1
    15    44    45    1
    16    31    32    2
    17    31    35   am
    18    56    55   ar
    19    23    19   am
    20    20    19    2
    21    45    50   am
    22    45    46    2
    23    35    36    1
    24    65    63    1
    25    50    51    1
    26    19    18    1
    27    55    57   ar
    28    55    54    1
    29    63    62    1
    30    15    16    1
    31    15    12    1
    32    36    39    1
    33    36    37    1
    34    51    54    1
    35    51    52    1
    36    39    40    1
    37    18    17    1
    38    18    21    1
    39    37    38    2
    40    17    13   am
    41    13    12    1
    42    13    14    2
    43    62    64    1
    44    62    59    1
    45    12    11    1
    46    22    21    1
    47    52    53    2
    48    58    59    1
    49    40    41    1
    50    59    60    1
    51    11     8   am
    52    41    42    1
    53    60    61    2
    54     8     9    2
    55     8     7    1
    56     7    10    1
    57     7     6    1
    58     4     3    2
    59     6     3   am
    60     3     2    1
    61     2     5    1
    62     2     1    1
