@<TRIPOS>MOLECULE
tmp/2bklB00.pdb
 173 169 0 0 0
SMALL
GASTEIGER

@<TRIPOS>ATOM
      1  N        -32.9340   -9.8740   48.7500 N.3   144  ASP144     -0.1239
      2  CA       -32.3640  -11.1830   49.0570 C.3   144  ASP144      0.1674
      3  C        -32.6660  -12.2200   47.9680 C.2   144  ASP144      0.2266
      4  O        -31.8390  -13.1060   47.7020 O.2   144  ASP144     -0.2867
      5  CB       -32.8850  -11.7360   50.3750 C.3   144  ASP144      0.1410
      6  CG       -32.3340  -11.0340   51.5990 C.2   144  ASP144      0.3668
      7  OD1      -31.4370  -10.1360   51.5320 O.co2 144  ASP144     -0.2456
      8  OD2      -32.8180  -11.3670   52.7130 O.co2 144  ASP144     -0.2456
      9  N        -31.7120  -17.7040   46.6650 N.3   168  LYS168     -0.1231
     10  CA       -31.5430  -16.8090   47.8130 C.3   168  LYS168      0.1693
     11  C        -30.4350  -17.1560   48.7750 C.2   168  LYS168      0.2592
     12  O        -29.6440  -16.2990   49.1620 O.2   168  LYS168     -0.2718
     13  CB       -32.8490  -16.6950   48.6170 C.3   168  LYS168      0.0285
     14  CG       -32.7190  -15.7930   49.8430 C.3   168  LYS168      0.0035
     15  CD       -33.9860  -15.7390   50.7260 C.3   168  LYS168      0.0206
     16  CE       -35.1140  -15.0530   50.0660 C.3   168  LYS168      0.1093
     17  NZ       -36.2310  -14.7390   51.0970 N.3   168  LYS168     -0.1314
     18  N        -30.4160  -18.4170   49.2070 N.am  169  TYR169     -0.1976
     19  CA       -29.5010  -18.8740   50.2160 C.3   169  TYR169      0.1639
     20  C        -28.2450  -19.5490   49.6770 C.2   169  TYR169      0.2290
     21  O        -27.4330  -20.0240   50.4470 O.2   169  TYR169     -0.2864
     22  CB       -30.2290  -19.8520   51.1580 C.3   169  TYR169      0.0560
     23  CG       -31.3590  -19.2210   51.9760 C.ar  169  TYR169     -0.0198
     24  CD1      -31.1660  -18.0380   52.6850 C.ar  169  TYR169     -0.0009
     25  CD2      -32.5970  -19.8090   52.0300 C.ar  169  TYR169     -0.0009
     26  CE1      -32.2170  -17.4350   53.3960 C.ar  169  TYR169      0.0417
     27  CE2      -33.6470  -19.2300   52.7670 C.ar  169  TYR169      0.0417
     28  CZ       -33.4440  -18.0540   53.4400 C.ar  169  TYR169      0.1957
     29  OH       -34.4810  -17.4970   54.1540 O.3   169  TYR169     -0.2866
     30  N        -31.7150  -22.7460   59.3890 N.3   228  PHE228     -0.1241
     31  CA       -31.1190  -22.6610   58.0650 C.3   228  PHE228      0.1605
     32  C        -30.4440  -23.9830   57.7150 C.2   228  PHE228      0.2264
     33  O        -29.9370  -24.6880   58.5960 O.2   228  PHE228     -0.2867
     34  CB       -30.0360  -21.5650   57.9700 C.3   228  PHE228      0.0534
     35  CG       -30.5090  -20.1860   58.2840 C.ar  228  PHE228     -0.0203
     36  CD1      -30.4880  -19.7260   59.5790 C.ar  228  PHE228     -0.0042
     37  CD2      -30.9390  -19.3260   57.2840 C.ar  228  PHE228     -0.0042
     38  CE1      -30.8920  -18.4260   59.8740 C.ar  228  PHE228     -0.0003
     39  CE2      -31.3600  -18.0240   57.6070 C.ar  228  PHE228     -0.0003
     40  CZ       -31.3200  -17.6010   58.8820 C.ar  228  PHE228     -0.0000
     41  N        -28.1640  -18.6510   65.7790 N.3   248  TRP248     -0.1241
     42  CA       -26.7740  -18.2680   65.9010 C.3   248  TRP248      0.1605
     43  C        -26.1620  -18.8550   67.1800 C.2   248  TRP248      0.2264
     44  O        -25.0740  -18.4600   67.5830 O.2   248  TRP248     -0.2867
     45  CB       -26.6880  -16.7150   65.9070 C.3   248  TRP248      0.0550
     46  CG       -26.9090  -16.0960   64.5380 C.ar  248  TRP248      0.0003
     47  CD1      -25.9530  -15.6070   63.7260 C.ar  248  TRP248      0.0946
     48  CD2      -28.1300  -16.0210   63.7900 C.ar  248  TRP248      0.0152
     49  NE1      -26.4860  -15.1710   62.5430 N.ar  248  TRP248     -0.2442
     50  CE2      -27.8300  -15.4150   62.5550 C.ar  248  TRP248      0.0810
     51  CE3      -29.4640  -16.3210   64.0750 C.ar  248  TRP248      0.0012
     52  CZ2      -28.7980  -15.1480   61.5840 C.ar  248  TRP248      0.0191
     53  CZ3      -30.4250  -16.0830   63.0990 C.ar  248  TRP248      0.0001
     54  CH2      -30.0820  -15.4930   61.8810 C.ar  248  TRP248      0.0015
     55  N        -25.9020   -2.2850   67.8990 N.3   452  TYR452     -0.1241
     56  CA       -26.6750   -3.3820   67.3030 C.3   452  TYR452      0.1605
     57  C        -27.1560   -4.2990   68.4030 C.2   452  TYR452      0.2264
     58  O        -28.3220   -4.2130   68.8410 O.2   452  TYR452     -0.2867
     59  CB       -25.8310   -4.0710   66.2560 C.3   452  TYR452      0.0534
     60  CG       -26.5490   -5.1550   65.4360 C.ar  452  TYR452     -0.0201
     61  CD1      -27.4230   -4.8460   64.4010 C.ar  452  TYR452     -0.0009
     62  CD2      -26.3160   -6.4840   65.6850 C.ar  452  TYR452     -0.0009
     63  CE1      -28.0310   -5.8220   63.6560 C.ar  452  TYR452      0.0417
     64  CE2      -26.9180   -7.4710   64.9470 C.ar  452  TYR452      0.0417
     65  CZ       -27.7510   -7.1560   63.9180 C.ar  452  TYR452      0.1957
     66  OH       -28.3300   -8.2110   63.2120 O.3   452  TYR452     -0.2866
     67  N        -27.1670  -11.4670   67.7650 N.3   455  PHE455     -0.1241
     68  CA       -26.8130  -12.3760   66.6920 C.3   455  PHE455      0.1605
     69  C        -25.3300  -12.6600   66.5980 C.2   455  PHE455      0.2264
     70  O        -24.8360  -13.0040   65.5380 O.2   455  PHE455     -0.2867
     71  CB       -27.4000  -11.8520   65.3610 C.3   455  PHE455      0.0534
     72  CG       -28.8820  -11.7890   65.3690 C.ar  455  PHE455     -0.0203
     73  CD1      -29.6240  -12.8950   64.9960 C.ar  455  PHE455     -0.0042
     74  CD2      -29.5530  -10.6470   65.7980 C.ar  455  PHE455     -0.0042
     75  CE1      -31.0120  -12.8850   65.0390 C.ar  455  PHE455     -0.0003
     76  CE2      -30.9340  -10.6050   65.8720 C.ar  455  PHE455     -0.0003
     77  CZ       -31.6800  -11.7340   65.4600 C.ar  455  PHE455     -0.0000
     78  N        -22.9560  -10.7290   66.4810 N.3   457  VAL457     -0.1245
     79  CA       -22.3150   -9.7810   65.5890 C.3   457  VAL457      0.1561
     80  C        -21.4320   -8.8590   66.4040 C.2   457  VAL457      0.2260
     81  O        -21.8490   -8.3490   67.4400 O.2   457  VAL457     -0.2867
     82  CB       -23.3860   -8.9860   64.8330 C.3   457  VAL457      0.0252
     83  CG1      -22.7660   -7.8410   64.0310 C.3   457  VAL457      0.0019
     84  CG2      -24.1170   -9.9080   63.8890 C.3   457  VAL457      0.0019
     85  N        -32.2300   -2.7310   61.5500 N.3   532  SER532     -0.1202
     86  CA       -32.6440   -4.1430   61.6310 C.3   532  SER532      0.2020
     87  C        -32.8000   -4.5560   63.1260 C.2   532  SER532      0.2618
     88  O        -33.7480   -3.9090   63.8390 O.2   532  SER532     -0.2717
     89  CB       -31.6340   -5.0210   60.8830 C.3   532  SER532      0.2103
     90  OG       -32.1930   -6.3210   60.6590 O.3   532  SER532     -0.2182
     91  N        -32.0200   -5.4810   63.6920 N.am  533  ASN533     -0.1974
     92  CA       -31.9820   -5.6620   65.1330 C.3   533  ASN533      0.1688
     93  C        -31.5290   -4.3850   65.8650 C.2   533  ASN533      0.2292
     94  O        -31.9180   -4.1530   67.0160 O.2   533  ASN533     -0.2864
     95  CB       -31.0550   -6.8290   65.4400 C.3   533  ASN533      0.1181
     96  CG       -30.8050   -7.0190   66.8840 C.2   533  ASN533      0.2629
     97  OD1      -31.6930   -7.4530   67.6230 O.2   533  ASN533     -0.2716
     98  ND2      -29.5710   -6.7100   67.3240 N.am  533  ASN533     -0.0877
     99  N        -37.1270   -3.9950   63.1350 N.3   558  LEU558     -0.1245
    100  CA       -38.1560   -4.8050   63.8040 C.3   558  LEU558      0.1561
    101  C        -38.6800   -4.0120   64.9890 C.2   558  LEU558      0.2260
    102  O        -37.8950   -3.5310   65.7950 O.2   558  LEU558     -0.2867
    103  CB       -37.5470   -6.1200   64.2960 C.3   558  LEU558      0.0270
    104  CG       -37.0520   -7.0930   63.2190 C.3   558  LEU558      0.0019
    105  CD1      -36.2260   -8.1960   63.8450 C.3   558  LEU558      0.0001
    106  CD2      -38.2380   -7.6960   62.4690 C.3   558  LEU558      0.0001
    107  N        -38.7420  -13.1190   56.8510 N.3   569  SER569     -0.1217
    108  CA       -37.8420  -14.1610   57.3870 C.3   569  SER569      0.1889
    109  C        -37.9180  -14.2910   58.8900 C.2   569  SER569      0.2288
    110  O        -37.0440  -14.8950   59.5160 O.2   569  SER569     -0.2866
    111  CB       -36.3760  -13.8680   57.0090 C.3   569  SER569      0.2089
    112  OG       -36.2660  -13.6780   55.6350 O.3   569  SER569     -0.2183
    113  N        -36.8970  -17.3320   61.2050 N.3   572  THR572     -0.1203
    114  CA       -35.4730  -17.6670   61.3540 C.3   572  THR572      0.1994
    115  C        -34.7950  -16.9890   62.5190 C.2   572  THR572      0.2617
    116  O        -33.6920  -17.4150   62.9060 O.2   572  THR572     -0.2717
    117  CB       -34.6490  -17.3750   60.1010 C.3   572  THR572      0.1784
    118  OG1      -34.5760  -15.9560   59.8900 O.3   572  THR572     -0.2211
    119  CG2      -35.2610  -18.0170   58.8480 C.3   572  THR572      0.0376
    120  N        -35.4720  -16.0160   63.1310 N.am  573  TRP573     -0.1975
    121  CA       -34.9140  -15.3260   64.3110 C.3   573  TRP573      0.1640
    122  C        -35.5420  -15.7570   65.6160 C.2   573  TRP573      0.2290
    123  O        -35.1510  -15.2740   66.6830 O.2   573  TRP573     -0.2864
    124  CB       -34.9900  -13.7850   64.1510 C.3   573  TRP573      0.0576
    125  CG       -34.4430  -13.3390   62.8220 C.ar  573  TRP573      0.0006
    126  CD1      -33.2920  -13.7610   62.2380 C.ar  573  TRP573      0.0946
    127  CD2      -35.0720  -12.4640   61.8970 C.ar  573  TRP573      0.0152
    128  NE1      -33.1630  -13.1980   60.9920 N.ar  573  TRP573     -0.2442
    129  CE2      -34.2400  -12.3970   60.7550 C.ar  573  TRP573      0.0810
    130  CE3      -36.2520  -11.7140   61.9200 C.ar  573  TRP573      0.0012
    131  CZ2      -34.5640  -11.6190   59.6420 C.ar  573  TRP573      0.0191
    132  CZ3      -36.5810  -10.9300   60.7990 C.ar  573  TRP573      0.0001
    133  CH2      -35.7380  -10.9140   59.6870 C.ar  573  TRP573      0.0015
    134  N        -34.8220  -14.3960   69.5400 N.3   577  TYR577     -0.1241
    135  CA       -35.7750  -13.5480   70.2670 C.3   577  TYR577      0.1605
    136  C        -36.8540  -14.3210   71.0460 C.2   577  TYR577      0.2264
    137  O        -37.4290  -13.8040   72.0060 O.2   577  TYR577     -0.2867
    138  CB       -36.5260  -12.6680   69.2680 C.3   577  TYR577      0.0534
    139  CG       -35.7170  -11.6550   68.4870 C.ar  577  TYR577     -0.0201
    140  CD1      -34.9220  -10.7120   69.1330 C.ar  577  TYR577     -0.0009
    141  CD2      -35.8120  -11.5800   67.1020 C.ar  577  TYR577     -0.0009
    142  CE1      -34.2590   -9.7500   68.4140 C.ar  577  TYR577      0.0417
    143  CE2      -35.1550  -10.6450   66.3840 C.ar  577  TYR577      0.0417
    144  CZ       -34.3670   -9.7160   67.0340 C.ar  577  TYR577      0.1957
    145  OH       -33.6940   -8.7260   66.3250 O.3   577  TYR577     -0.2866
    146  N        -36.6150   -9.2530   53.7520 N.3   617  ARG617     -0.1231
    147  CA       -36.1090   -9.9130   54.9470 C.3   617  ARG617      0.1694
    148  C        -36.8490   -9.4300   56.1940 C.2   617  ARG617      0.2591
    149  O        -37.5370  -10.2180   56.8350 O.2   617  ARG617     -0.2718
    150  CB       -34.6270   -9.6570   55.0690 C.3   617  ARG617      0.0321
    151  CG       -33.9830  -10.5980   56.0710 C.3   617  ARG617      0.0489
    152  CD       -32.5030  -10.3490   56.3490 C.3   617  ARG617      0.2205
    153  NE       -31.6830  -10.3700   55.1420 N.pl3 617  ARG617     -0.0865
    154  CZ       -30.3880  -10.1290   55.1090 C.cat 617  ARG617      0.5346
    155  NH1      -29.6900   -9.8640   56.2030 N.pl3 617  ARG617      0.1354
    156  NH2      -29.7600  -10.1390   53.9500 N.pl3 617  ARG617      0.1354
    157  N        -36.7180   -8.1360   56.4980 N.am  618  VAL618     -0.1980
    158  CA       -37.4220   -7.4960   57.5900 C.3   618  VAL618      0.1595
    159  C        -38.6130   -6.7580   56.9990 C.2   618  VAL618      0.2287
    160  O        -38.4580   -5.8440   56.1970 O.2   618  VAL618     -0.2864
    161  CB       -36.4980   -6.5260   58.3610 C.3   618  VAL618      0.0276
    162  CG1      -37.2910   -5.7030   59.4010 C.3   618  VAL618      0.0022
    163  CG2      -35.3390   -7.2720   59.0510 C.3   618  VAL618      0.0022
    164  N        -32.7780   -4.8480   51.9120 N.3   650  HIS650     -0.1241
    165  CA       -32.4940   -4.6960   53.3340 C.3   650  HIS650      0.1621
    166  C        -31.2210   -3.8780   53.5800 C.2   650  HIS650      0.2264
    167  O        -31.1230   -3.1190   54.5550 O.2   650  HIS650     -0.2867
    168  CB       -32.3820   -6.0650   53.9940 C.3   650  HIS650      0.0745
    169  CG       -32.2750   -5.9970   55.4790 C.ar  650  HIS650      0.0817
    170  ND1      -33.2690   -5.4640   56.2640 N.ar  650  HIS650     -0.2268
    171  CD2      -31.2800   -6.3630   56.3130 C.ar  650  HIS650      0.1154
    172  CE1      -32.8870   -5.5090   57.5320 C.ar  650  HIS650      0.1986
    173  NE2      -31.6860   -6.0570   57.5880 N.ar  650  HIS650     -0.2212
@<TRIPOS>BOND
     1     9    10    1
     2     4     3    2
     3    10    13    1
     4    10    11    1
     5     3     2    1
     6    13    14    1
     7     1     2    1
     8    11    12    2
     9    11    18   am
    10     2     5    1
    11    18    19    1
    12    20    19    1
    13    20    21    2
    14    14    15    1
    15    16    15    1
    16    16    17    1
    17    19    22    1
    18     5     6    1
    19    22    23    1
    20     7     6   ar
    21     6     8   ar
    22   164   165    1
    23    23    25   ar
    24    23    24   ar
    25    25    27   ar
    26    24    26   ar
    27    27    28   ar
    28   165   166    1
    29   165   168    1
    30    26    28   ar
    31    28    29    1
    32   166   167    2
    33   146   147    1
    34   156   154    1
    35   168   169    1
    36   147   150    1
    37   147   148    1
    38   150   151    1
    39   154   153    2
    40   154   155    1
    41   153   152    1
    42   169   170   ar
    43   169   171   ar
    44   112   111    1
    45   151   152    1
    46   148   157   am
    47   148   149    2
    48   160   159    2
    49   170   172   ar
    50   171   173   ar
    51   157   158    1
    52   107   108    1
    53   159   158    1
    54   111   108    1
    55    37    39   ar
    56    37    35   ar
    57   108   109    1
    58   172   173   ar
    59   158   161    1
    60    39    40   ar
    61    32    31    1
    62    32    33    2
    63    34    31    1
    64    34    35    1
    65    31    30    1
    66    35    36   ar
    67   161   163    1
    68   161   162    1
    69   119   117    1
    70    40    38   ar
    71   109   110    2
    72    36    38   ar
    73   131   133   ar
    74   131   129   ar
    75   133   132   ar
    76   118   117    1
    77   117   114    1
    78    90    89    1
    79   129   128   ar
    80   129   127   ar
    81   132   130   ar
    82    89    86    1
    83   128   126   ar
    84   113   114    1
    85   114   115    1
    86    85    86    1
    87    52    54   ar
    88    52    50   ar
    89    86    87    1
    90    54    53   ar
    91   127   130   ar
    92   127   125   ar
    93   126   125   ar
    94   106   104    1
    95   115   116    2
    96   115   120   am
    97    49    50   ar
    98    49    47   ar
    99    50    48   ar
   100   125   124    1
   101    53    51   ar
   102    87    91   am
   103    87    88    2
   104   120   121    1
   105    99   100    1
   106    66    65    1
   107   104   105    1
   108   104   103    1
   109    63    65   ar
   110    63    61   ar
   111    91    92    1
   112    47    46   ar
   113    48    51   ar
   114    48    46   ar
   115   100   103    1
   116   100   101    1
   117    84    82    1
   118    65    64   ar
   119    83    82    1
   120   124   121    1
   121   121   122    1
   122    61    60   ar
   123    46    45    1
   124    82    79    1
   125    64    62   ar
   126   101   102    2
   127    73    75   ar
   128    73    72   ar
   129    75    77   ar
   130    92    95    1
   131    92    93    1
   132    71    72    1
   133    71    68    1
   134    72    74   ar
   135    60    62   ar
   136    60    59    1
   137    95    96    1
   138    77    76   ar
   139    70    69    2
   140    79    80    1
   141    79    78    1
   142   122   123    2
   143    41    42    1
   144    74    76   ar
   145    93    94    2
   146    42    45    1
   147    42    43    1
   148    59    56    1
   149   145   144    1
   150   143   144   ar
   151   143   141   ar
   152    80    81    2
   153    69    68    1
   154    68    67    1
   155    96    98   am
   156    96    97    2
   157   144   142   ar
   158   141   139   ar
   159    43    44    2
   160    56    55    1
   161    56    57    1
   162    57    58    2
   163   142   140   ar
   164   139   140   ar
   165   139   138    1
   166   138   135    1
   167   134   135    1
   168   135   136    1
   169   136   137    2
