@<TRIPOS>MOLECULE
tmp/2bklB01.pdb
 116 113 0 0 0
SMALL
GASTEIGER

@<TRIPOS>ATOM
      1  N         -9.7530   -1.9810   44.9780 N.3    71  VAL71      -0.1245
      2  CA        -9.6600   -3.3550   44.5130 C.3    71  VAL71       0.1561
      3  C         -9.8020   -4.2590   45.7310 C.2    71  VAL71       0.2260
      4  O         -9.2910   -3.9210   46.8110 O.2    71  VAL71      -0.2867
      5  CB        -8.3720   -3.5760   43.7170 C.3    71  VAL71       0.0252
      6  CG1       -7.1540   -3.3700   44.5530 C.3    71  VAL71       0.0019
      7  CG2       -8.3450   -4.9530   43.1330 C.3    71  VAL71       0.0019
      8  N         -8.0700  -10.9300   45.7960 N.3    74  PRO74      -0.2116
      9  CA        -8.3350  -11.8030   44.6660 C.3    74  PRO74       0.1372
     10  C         -8.6040  -13.2470   45.0750 C.2    74  PRO74       0.2244
     11  O         -7.9850  -13.7780   46.0230 O.2    74  PRO74      -0.2868
     12  CB        -7.0320  -11.7180   43.8820 C.3    74  PRO74       0.0268
     13  CG        -5.9980  -11.6230   44.9440 C.3    74  PRO74       0.0207
     14  CD        -6.6270  -10.7480   46.0130 C.3    74  PRO74       0.0892
     15  N         -6.9020  -15.1070   38.3090 N.3    81  PHE81      -0.1241
     16  CA        -7.2560  -14.2510   39.4320 C.3    81  PHE81       0.1605
     17  C         -8.5740  -13.5350   39.1540 C.2    81  PHE81       0.2264
     18  O         -8.7800  -12.9950   38.0450 O.2    81  PHE81      -0.2867
     19  CB        -6.1830  -13.1720   39.6360 C.3    81  PHE81       0.0534
     20  CG        -4.8760  -13.6740   40.1510 C.ar   81  PHE81      -0.0203
     21  CD1       -4.0260  -14.4020   39.3510 C.ar   81  PHE81      -0.0042
     22  CD2       -4.4750  -13.3460   41.4400 C.ar   81  PHE81      -0.0042
     23  CE1       -2.7820  -14.8510   39.8610 C.ar   81  PHE81      -0.0003
     24  CE2       -3.2360  -13.7490   41.9330 C.ar   81  PHE81      -0.0003
     25  CZ        -2.4230  -14.5260   41.1570 C.ar   81  PHE81      -0.0000
     26  N        -11.4300  -10.7530   40.9520 N.3    83  TYR83      -0.1241
     27  CA       -11.4580   -9.7090   41.9930 C.3    83  TYR83       0.1605
     28  C        -12.3740   -8.5840   41.5610 C.2    83  TYR83       0.2264
     29  O        -12.5830   -8.3460   40.3400 O.2    83  TYR83      -0.2867
     30  CB       -10.0330   -9.1780   42.2900 C.3    83  TYR83       0.0534
     31  CG        -9.3170   -8.7910   41.0270 C.ar   83  TYR83      -0.0201
     32  CD1       -8.6820   -9.7540   40.2640 C.ar   83  TYR83      -0.0009
     33  CD2       -9.3770   -7.4990   40.5110 C.ar   83  TYR83      -0.0009
     34  CE1       -8.0920   -9.4390   39.0550 C.ar   83  TYR83       0.0417
     35  CE2       -8.7730   -7.1970   39.3030 C.ar   83  TYR83       0.0417
     36  CZ        -8.1380   -8.1640   38.5910 C.ar   83  TYR83       0.1957
     37  OH        -7.5360   -7.9130   37.3880 O.3    83  TYR83      -0.2866
     38  N        -13.3670   -4.5160   41.5220 N.3    85  ARG85      -0.1245
     39  CA       -12.9140   -3.1400   41.6010 C.3    85  ARG85       0.1563
     40  C        -14.0880   -2.1760   41.7370 C.2    85  ARG85       0.2260
     41  O        -15.1500   -2.4160   41.1830 O.2    85  ARG85      -0.2867
     42  CB       -12.1930   -2.7140   40.3510 C.3    85  ARG85       0.0307
     43  CG       -10.8960   -3.4000   40.1200 C.3    85  ARG85       0.0489
     44  CD       -10.1930   -2.7990   38.9350 C.3    85  ARG85       0.2205
     45  NE        -8.9290   -3.4200   38.6100 N.pl3  85  ARG85      -0.0865
     46  CZ        -7.7450   -3.0370   39.1060 C.cat  85  ARG85       0.5346
     47  NH1       -7.6470   -2.0610   40.0070 N.pl3  85  ARG85       0.1354
     48  NH2       -6.6510   -3.6560   38.7170 N.pl3  85  ARG85       0.1354
     49  N         -8.0240  -11.9790   35.3730 N.3    98  ARG98      -0.1245
     50  CA        -6.8090  -11.9900   34.5440 C.3    98  ARG98       0.1563
     51  C         -6.1700  -13.3650   34.5850 C.2    98  ARG98       0.2260
     52  O         -6.3520  -14.1340   35.5420 O.2    98  ARG98      -0.2867
     53  CB        -5.7760  -10.9350   34.9820 C.3    98  ARG98       0.0307
     54  CG        -5.2820  -11.0650   36.4050 C.3    98  ARG98       0.0489
     55  CD        -4.2190  -10.0390   36.8060 C.3    98  ARG98       0.2205
     56  NE        -4.7360   -8.6910   36.8420 N.pl3  98  ARG98      -0.0865
     57  CZ        -3.9810   -7.6030   36.8690 C.cat  98  ARG98       0.5346
     58  NH1       -2.6660   -7.7300   36.8720 N.pl3  98  ARG98       0.1354
     59  NH2       -4.5470   -6.4050   36.9140 N.pl3  98  ARG98       0.1354
     60  N         -0.7580  -13.3200   37.3410 N.3   101  GLU101     -0.1245
     61  CA        -0.5760  -12.0000   37.9070 C.3   101  GLU101      0.1567
     62  C         -0.2290  -10.9880   36.7930 C.2   101  GLU101      0.2260
     63  O         -0.5110   -9.8170   36.9370 O.2   101  GLU101     -0.2867
     64  CB         0.5070  -12.0090   39.0090 C.3   101  GLU101      0.0388
     65  CG        -0.0880  -12.1570   40.4040 C.3   101  GLU101      0.1160
     66  CD         0.9260  -12.1830   41.5420 C.2   101  GLU101      0.3649
     67  OE1        1.8920  -11.3770   41.5290 O.co2 101  GLU101     -0.2457
     68  OE2        0.7470  -13.0100   42.4710 O.co2 101  GLU101     -0.2457
     69  N         -3.6980  -13.0950   51.9480 N.3   377  TYR377     -0.1241
     70  CA        -4.0080  -11.6770   52.0040 C.3   377  TYR377      0.1605
     71  C         -4.8120  -11.4190   53.2450 C.2   377  TYR377      0.2264
     72  O         -5.5780  -12.2540   53.7110 O.2   377  TYR377     -0.2867
     73  CB        -4.8490  -11.2490   50.7910 C.3   377  TYR377      0.0534
     74  CG        -4.1650  -11.4330   49.4480 C.ar  377  TYR377     -0.0201
     75  CD1       -4.1760  -12.6540   48.8040 C.ar  377  TYR377     -0.0009
     76  CD2       -3.5550  -10.3630   48.8020 C.ar  377  TYR377     -0.0009
     77  CE1       -3.5580  -12.8100   47.5840 C.ar  377  TYR377      0.0417
     78  CE2       -2.9560  -10.5120   47.5770 C.ar  377  TYR377      0.0417
     79  CZ        -2.9660  -11.7300   46.9730 C.ar  377  TYR377      0.1957
     80  OH        -2.3320  -11.8850   45.7550 O.3   377  TYR377     -0.2866
     81  N          3.7310   -7.1850   52.6080 N.3   400  GLU400     -0.1231
     82  CA         3.8480   -5.9980   51.7680 C.3   400  GLU400      0.1699
     83  C          2.4300   -5.4420   51.5390 C.2   400  GLU400      0.2592
     84  O          1.4640   -6.1900   51.4180 O.2   400  GLU400     -0.2718
     85  CB         4.5230   -6.3290   50.4220 C.3   400  GLU400      0.0402
     86  CG         3.5620   -6.8780   49.3810 C.3   400  GLU400      0.1161
     87  CD         4.1980   -7.4940   48.1400 C.2   400  GLU400      0.3649
     88  OE1        3.6580   -7.2480   47.0300 O.co2 400  GLU400     -0.2457
     89  OE2        5.1780   -8.2600   48.2690 O.co2 400  GLU400     -0.2457
     90  N          2.3160   -4.1320   51.5100 N.am  401  LEU401     -0.1966
     91  CA         1.0650   -3.5020   51.1210 C.3   401  LEU401      0.1728
     92  C          0.7590   -3.8370   49.6570 C.2   401  LEU401      0.2616
     93  O          1.5660   -3.5950   48.7510 O.2   401  LEU401     -0.2715
     94  CB         1.1330   -1.9940   51.3140 C.3   401  LEU401      0.0311
     95  CG        -0.1360   -1.2100   50.9600 C.3   401  LEU401      0.0022
     96  CD1       -1.2380   -1.5130   51.9330 C.3   401  LEU401      0.0001
     97  CD2        0.1890    0.2930   50.9060 C.3   401  LEU401      0.0001
     98  N         -0.4070   -4.4050   49.4400 N.am  402  TRP402     -0.1960
     99  CA        -0.8640   -4.8300   48.1360 C.3   402  TRP402      0.1771
    100  C         -1.7850   -3.7880   47.5110 C.2   402  TRP402      0.2619
    101  O         -1.6610   -3.4890   46.3300 O.2   402  TRP402     -0.2715
    102  CB        -1.5650   -6.1850   48.2690 C.3   402  TRP402      0.0590
    103  CG        -1.9220   -6.8670   46.9880 C.ar  402  TRP402      0.0006
    104  CD1       -1.0650   -7.5590   46.1840 C.ar  402  TRP402      0.0946
    105  CD2       -3.2240   -6.9670   46.3820 C.ar  402  TRP402      0.0152
    106  NE1       -1.7480   -8.0540   45.1040 N.ar  402  TRP402     -0.2442
    107  CE2       -3.0740   -7.7190   45.2000 C.ar  402  TRP402      0.0810
    108  CE3       -4.4860   -6.4680   46.6930 C.ar  402  TRP402      0.0012
    109  CZ2       -4.1410   -8.0000   44.3470 C.ar  402  TRP402      0.0191
    110  CZ3       -5.5580   -6.7660   45.8440 C.ar  402  TRP402      0.0001
    111  CH2       -5.3620   -7.5140   44.6770 C.ar  402  TRP402      0.0015
    112  N         -2.6950   -3.2100   48.2940 N.am  403  ALA403     -0.1977
    113  CA        -3.5750   -2.1450   47.7950 C.3   403  ALA403      0.1597
    114  C         -4.0680   -1.3090   48.9580 C.2   403  ALA403      0.2287
    115  O         -4.1730   -1.7920   50.0710 O.2   403  ALA403     -0.2864
    116  CB        -4.7710   -2.7420   47.0530 C.3   403  ALA403      0.0319
@<TRIPOS>BOND
     1    50    51    1
     2    50    53    1
     3    50    49    1
     4    51    52    2
     5    53    54    1
     6    54    55    1
     7    62    63    2
     8    62    61    1
     9    55    56    1
    10    56    57    2
    11    57    58    1
    12    57    59    1
    13    60    61    1
    14    37    36    1
    15    61    64    1
    16    18    17    2
    17    15    16    1
    18    36    34   ar
    19    36    35   ar
    20    45    44    1
    21    45    46    2
    22    48    46    1
    23    44    43    1
    24    64    65    1
    25    34    32   ar
    26    46    47    1
    27    17    16    1
    28    35    33   ar
    29    21    23   ar
    30    21    20   ar
    31    16    19    1
    32    19    20    1
    33    23    25   ar
    34    43    42    1
    35    20    22   ar
    36    32    31   ar
    37    29    28    2
    38    42    39    1
    39    65    66    1
    40    33    31   ar
    41    26    27    1
    42    31    30    1
    43    25    24   ar
    44    41    40    2
    45    22    24   ar
    46    38    39    1
    47    67    66   ar
    48    66    68   ar
    49    28    27    1
    50    39    40    1
    51    27    30    1
    52     7     5    1
    53     5     2    1
    54     5     6    1
    55    12     9    1
    56    12    13    1
    57   109   111   ar
    58   109   107   ar
    59     2     1    1
    60     2     3    1
    61     9    10    1
    62     9     8    1
    63   111   110   ar
    64    13    14    1
    65    10    11    2
    66   106   107   ar
    67   106   104   ar
    68   107   105   ar
    69     3     4    2
    70    80    79    1
    71     8    14    1
    72   110   108   ar
    73   104   103   ar
    74   101   100    2
    75   105   108   ar
    76   105   103   ar
    77    79    78   ar
    78    79    77   ar
    79   103   102    1
    80    88    87   ar
    81   116   113    1
    82   100    99    1
    83   100   112   am
    84    78    76   ar
    85    77    75   ar
    86   113   112    1
    87   113   114    1
    88    99   102    1
    89    99    98    1
    90    87    89   ar
    91    87    86    1
    92    93    92    2
    93    76    74   ar
    94    75    74   ar
    95   114   115    2
    96    86    85    1
    97    98    92   am
    98    74    73    1
    99    92    91    1
   100    85    82    1
   101    73    70    1
   102    97    95    1
   103    95    94    1
   104    95    96    1
   105    91    94    1
   106    91    90    1
   107    84    83    2
   108    90    83   am
   109    83    82    1
   110    82    81    1
   111    69    70    1
   112    70    71    1
   113    71    72    2
