@<TRIPOS>MOLECULE
tmp/2bklB02.pdb
 88 90 0 0 0
SMALL
GASTEIGER

@<TRIPOS>ATOM
      1  N        -54.5250   -8.7370   77.1190 N.3    18  GLN18      -0.1231
      2  CA       -55.0320   -7.8890   76.0520 C.3    18  GLN18       0.1698
      3  C        -53.8820   -7.1360   75.3920 C.2    18  GLN18       0.2592
      4  O        -53.1020   -6.4450   76.0720 O.2    18  GLN18      -0.2718
      5  CB       -56.0630   -6.8870   76.5860 C.3    18  GLN18       0.0381
      6  CG       -57.2560   -7.5350   77.2690 C.3    18  GLN18       0.0905
      7  CD       -58.0300   -8.3960   76.3200 C.2    18  GLN18       0.2608
      8  OE1      -57.9820   -9.6370   76.3870 O.2    18  GLN18      -0.2717
      9  NE2      -58.7140   -7.7510   75.3870 N.am   18  GLN18      -0.0878
     10  N        -53.8020   -7.2530   74.0720 N.am   19  VAL19      -0.1966
     11  CA       -52.7660   -6.5840   73.2740 C.3    19  VAL19       0.1727
     12  C        -53.4420   -5.7760   72.1670 C.2    19  VAL19       0.2616
     13  O        -54.0730   -6.3270   71.2730 O.2    19  VAL19      -0.2715
     14  CB       -51.7830   -7.5870   72.6730 C.3    19  VAL19       0.0290
     15  CG1      -50.6940   -6.8650   71.8760 C.3    19  VAL19       0.0023
     16  CG2      -51.1700   -8.4520   73.7780 C.3    19  VAL19       0.0023
     17  N        -53.3050   -4.4560   72.2590 N.am   20  ALA20      -0.1977
     18  CA       -53.9090   -3.5290   71.3030 C.3    20  ALA20       0.1597
     19  C        -53.0170   -3.3560   70.0790 C.2    20  ALA20       0.2287
     20  O        -51.7950   -3.2840   70.1970 O.2    20  ALA20      -0.2864
     21  CB       -54.1270   -2.1850   71.9460 C.3    20  ALA20       0.0319
     22  N        -43.3950   -8.8980   74.8420 N.3   590  HIS590     -0.1241
     23  CA       -44.3630   -7.8470   75.0440 C.3   590  HIS590      0.1621
     24  C        -43.8040   -6.7540   75.9500 C.2   590  HIS590      0.2264
     25  O        -44.0900   -5.5940   75.7570 O.2   590  HIS590     -0.2867
     26  CB       -45.6560   -8.4390   75.6200 C.3   590  HIS590      0.0745
     27  CG       -46.8160   -7.5020   75.5880 C.ar  590  HIS590      0.0817
     28  ND1      -47.8090   -7.5270   76.5450 N.ar  590  HIS590     -0.2268
     29  CD2      -47.1620   -6.5290   74.7110 C.ar  590  HIS590      0.1154
     30  CE1      -48.7150   -6.6050   76.2590 C.ar  590  HIS590      0.1986
     31  NE2      -48.3500   -5.9890   75.1490 N.ar  590  HIS590     -0.2212
     32  N        -43.4210   -1.0530   69.5350 N.3   595  TYR595     -0.1227
     33  CA       -44.7230   -0.6490   69.0350 C.3   595  TYR595      0.1736
     34  C        -45.7710   -0.6420   70.1320 C.2   595  TYR595      0.2595
     35  O        -46.7680    0.0890   70.0120 O.2   595  TYR595     -0.2718
     36  CB       -45.1260   -1.5880   67.9100 C.3   595  TYR595      0.0548
     37  CG       -46.5340   -1.4280   67.3960 C.ar  595  TYR595     -0.0200
     38  CD1      -46.9630   -0.2560   66.7870 C.ar  595  TYR595     -0.0009
     39  CD2      -47.4570   -2.4540   67.5440 C.ar  595  TYR595     -0.0009
     40  CE1      -48.2600   -0.1210   66.3130 C.ar  595  TYR595      0.0417
     41  CE2      -48.7520   -2.3290   67.0670 C.ar  595  TYR595      0.0417
     42  CZ       -49.1530   -1.1640   66.4820 C.ar  595  TYR595      0.1957
     43  OH       -50.4330   -1.0500   65.9670 O.3   595  TYR595     -0.2866
     44  N        -45.5770   -1.4560   71.1680 N.am  596  HIS596     -0.1961
     45  CA       -46.5460   -1.5810   72.2640 C.3   596  HIS596      0.1787
     46  C        -46.2260   -0.7110   73.4620 C.2   596  HIS596      0.2620
     47  O        -46.8830   -0.8080   74.4980 O.2   596  HIS596     -0.2715
     48  CB       -46.6660   -3.0700   72.7040 C.3   596  HIS596      0.0785
     49  CG       -47.1850   -3.9580   71.6120 C.ar  596  HIS596      0.0821
     50  ND1      -46.3600   -4.5960   70.7040 N.ar  596  HIS596     -0.2267
     51  CD2      -48.4490   -4.1900   71.1960 C.ar  596  HIS596      0.1154
     52  CE1      -47.1080   -5.2290   69.8140 C.ar  596  HIS596      0.1986
     53  NE2      -48.3790   -4.9950   70.0910 N.ar  596  HIS596     -0.2212
     54  N        -45.2280    0.1490   73.3190 N.am  597  HIS597     -0.1959
     55  CA       -44.7340    0.9900   74.4140 C.3   597  HIS597      0.1787
     56  C        -44.5740    2.4560   74.0720 C.2   597  HIS597      0.2620
     57  O        -43.8070    3.1760   74.7230 O.2   597  HIS597     -0.2715
     58  CB       -43.4540    0.3970   75.0330 C.3   597  HIS597      0.0785
     59  CG       -43.7310   -0.8570   75.7700 C.ar  597  HIS597      0.0821
     60  ND1      -44.2450   -0.8580   77.0540 N.ar  597  HIS597     -0.2267
     61  CD2      -43.6810   -2.1470   75.3770 C.ar  597  HIS597      0.1154
     62  CE1      -44.4580   -2.1090   77.4240 C.ar  597  HIS597      0.1986
     63  NE2      -44.1280   -2.9110   76.4290 N.ar  597  HIS597     -0.2212
     64  N        -45.3500    2.9190   73.1040 N.am  598  VAL598     -0.1963
     65  CA       -45.3930    4.3400   72.7770 C.3   598  VAL598      0.1727
     66  C        -46.4240    4.9950   73.7160 C.2   598  VAL598      0.2616
     67  O        -47.5810    5.1850   73.3740 O.2   598  VAL598     -0.2715
     68  CB       -45.7120    4.5940   71.2840 C.3   598  VAL598      0.0290
     69  CG1      -45.5970    6.0800   71.0100 C.3   598  VAL598      0.0023
     70  CG2      -44.7260    3.8490   70.3980 C.3   598  VAL598      0.0023
     71  N        -45.9870    5.3070   74.9310 N.am  599  ARG599     -0.1964
     72  CA       -46.8510    5.9300   75.9170 C.3   599  ARG599      0.1714
     73  C        -47.2910    7.2960   75.4150 C.2   599  ARG599      0.2458
     74  O        -46.5080    8.0350   74.8020 O.2   599  ARG599     -0.2730
     75  CB       -46.1150    6.0960   77.2170 C.3   599  ARG599      0.0347
     76  CG       -45.7100    4.8450   77.9310 C.3   599  ARG599      0.0492
     77  CD       -44.8760    5.0820   79.1760 C.3   599  ARG599      0.2205
     78  NE       -43.6310    5.7730   78.8230 N.pl3 599  ARG599     -0.0865
     79  CZ       -42.9400    6.5740   79.5970 C.cat 599  ARG599      0.5346
     80  NH1      -43.3050    6.8360   80.8430 N.pl3 599  ARG599      0.1354
     81  NH2      -41.8650    7.1740   79.1010 N.pl3 599  ARG599      0.1354
     82  N        -48.5250    7.6670   75.7280 N.am  600  PRO600     -0.2727
     83  CA       -49.0130    8.9950   75.4100 C.3   600  PRO600      0.1402
     84  C        -48.4820   10.0510   76.3780 C.2   600  PRO600      0.2269
     85  O        -47.9840    9.7360   77.4520 O.2   600  PRO600     -0.2865
     86  CB       -50.5230    8.8250   75.5370 C.3   600  PRO600      0.0296
     87  CG       -50.6770    7.8490   76.6290 C.3   600  PRO600      0.0237
     88  CD       -49.5700    6.8650   76.3970 C.3   600  PRO600      0.0939
@<TRIPOS>BOND
     1    43    42    1
     2    40    42   ar
     3    40    38   ar
     4    42    41   ar
     5    38    37   ar
     6    41    39   ar
     7    37    39   ar
     8    37    36    1
     9    36    33    1
    10    33    32    1
    11    33    34    1
    12    52    53   ar
    13    52    50   ar
    14    35    34    2
    15    19    20    2
    16    19    18    1
    17    53    51   ar
    18    34    44   am
    19    70    68    1
    20    50    49   ar
    21    69    68    1
    22    44    45    1
    23    51    49   ar
    24    13    12    2
    25    68    65    1
    26    18    21    1
    27    18    17    1
    28    49    48    1
    29    15    14    1
    30    12    17   am
    31    12    11    1
    32    45    48    1
    33    45    46    1
    34    14    11    1
    35    14    16    1
    36    65    64    1
    37    65    66    1
    38    64    56   am
    39    11    10    1
    40    54    46   am
    41    54    55    1
    42    67    66    2
    43    46    47    2
    44    66    71   am
    45    56    55    1
    46    56    57    2
    47    10     3   am
    48    55    58    1
    49    29    31   ar
    50    29    27   ar
    51    74    73    2
    52    22    23    1
    53    71    72    1
    54    58    59    1
    55    23    26    1
    56    23    24    1
    57    31    30   ar
    58    61    59   ar
    59    61    63   ar
    60     9     7   am
    61     3     2    1
    62     3     4    2
    63    83    86    1
    64    83    82    1
    65    83    84    1
    66    73    82   am
    67    73    72    1
    68    86    87    1
    69    27    26    1
    70    27    28   ar
    71    82    88    1
    72    25    24    2
    73    59    60   ar
    74    72    75    1
    75     2     5    1
    76     2     1    1
    77    30    28   ar
    78     7     8    2
    79     7     6    1
    80    84    85    2
    81    88    87    1
    82    63    62   ar
    83     5     6    1
    84    60    62   ar
    85    75    76    1
    86    76    77    1
    87    78    77    1
    88    78    79    2
    89    81    79    1
    90    79    80    1
