@<TRIPOS>MOLECULE
tmp/2bklA02.pdb
 96 91 0 0 0
SMALL
GASTEIGER

@<TRIPOS>ATOM
      1  N        -55.5100  -12.4470   33.0390 N.3   175  THR175     -0.1218
      2  CA       -56.4460  -13.5350   33.3160 C.3   175  THR175      0.1862
      3  C        -57.7640  -12.9920   33.8550 C.2   175  THR175      0.2287
      4  O        -57.8000  -11.8940   34.3770 O.2   175  THR175     -0.2866
      5  CB       -55.8410  -14.5640   34.2730 C.3   175  THR175      0.1770
      6  OG1      -55.1170  -13.9110   35.3190 O.3   175  THR175     -0.2211
      7  CG2      -54.7820  -15.4020   33.5390 C.3   175  THR175      0.0375
      8  N        -50.2910  -12.7800   31.3150 N.3   182  TYR182     -0.1241
      9  CA       -49.3010  -13.3720   30.4100 C.3   182  TYR182      0.1605
     10  C        -48.6490  -12.2860   29.5870 C.2   182  TYR182      0.2264
     11  O        -49.2910  -11.3170   29.2000 O.2   182  TYR182     -0.2867
     12  CB       -49.9830  -14.3540   29.4600 C.3   182  TYR182      0.0534
     13  CG       -50.5390  -15.5910   30.1340 C.ar  182  TYR182     -0.0201
     14  CD1      -49.7470  -16.7260   30.3590 C.ar  182  TYR182     -0.0009
     15  CD2      -51.8760  -15.6610   30.5130 C.ar  182  TYR182     -0.0009
     16  CE1      -50.2460  -17.8320   30.9430 C.ar  182  TYR182      0.0417
     17  CE2      -52.3740  -16.7770   31.1390 C.ar  182  TYR182      0.0417
     18  CZ       -51.5600  -17.8650   31.3330 C.ar  182  TYR182      0.1957
     19  OH       -52.0260  -19.0110   31.9330 O.3   182  TYR182     -0.2866
     20  N        -45.7050  -15.5230   32.9440 N.3   205  TYR205     -0.1241
     21  CA       -46.9100  -15.0940   33.6580 C.3   205  TYR205      0.1605
     22  C        -46.4620  -14.3120   34.8620 C.2   205  TYR205      0.2264
     23  O        -45.6660  -14.8050   35.6730 O.2   205  TYR205     -0.2867
     24  CB       -47.8110  -16.2450   34.1100 C.3   205  TYR205      0.0534
     25  CG       -49.1040  -15.7420   34.7310 C.ar  205  TYR205     -0.0201
     26  CD1      -50.1690  -15.4120   33.9380 C.ar  205  TYR205     -0.0009
     27  CD2      -49.2450  -15.5640   36.0930 C.ar  205  TYR205     -0.0009
     28  CE1      -51.3500  -14.9120   34.4680 C.ar  205  TYR205      0.0417
     29  CE2      -50.4230  -15.0690   36.6390 C.ar  205  TYR205      0.0417
     30  CZ       -51.4800  -14.7570   35.8120 C.ar  205  TYR205      0.1957
     31  OH       -52.6410  -14.2570   36.3690 O.3   205  TYR205     -0.2866
     32  N        -47.6830  -12.6820   38.3040 N.3   207  THR207     -0.1218
     33  CA       -48.7080  -12.5390   39.3360 C.3   207  THR207      0.1862
     34  C        -48.5340  -11.1810   40.0170 C.2   207  THR207      0.2287
     35  O        -47.4330  -10.8600   40.4920 O.2   207  THR207     -0.2866
     36  CB       -48.5690  -13.6710   40.3560 C.3   207  THR207      0.1770
     37  OG1      -48.8500  -14.9520   39.7430 O.3   207  THR207     -0.2211
     38  CG2      -49.6100  -13.5100   41.5010 C.3   207  THR207      0.0375
     39  N        -43.5890  -17.3030   36.1550 N.3   216  THR216     -0.1203
     40  CA       -43.4640  -18.6250   35.5460 C.3   216  THR216      0.1994
     41  C        -43.1230  -18.4950   34.0740 C.2   216  THR216      0.2618
     42  O        -43.5970  -17.5820   33.3770 O.2   216  THR216     -0.2717
     43  CB       -44.7170  -19.5250   35.7230 C.3   216  THR216      0.1784
     44  OG1      -45.8370  -18.9510   35.0730 O.3   216  THR216     -0.2211
     45  CG2      -45.1360  -19.5950   37.1690 C.3   216  THR216      0.0376
     46  N        -42.2850  -19.4090   33.6140 N.am  217  VAL217     -0.1965
     47  CA       -41.9950  -19.5760   32.2100 C.3   217  VAL217      0.1727
     48  C        -43.0870  -20.4380   31.6030 C.2   217  VAL217      0.2616
     49  O        -43.2140  -21.6310   31.9070 O.2   217  VAL217     -0.2715
     50  CB       -40.6080  -20.2180   31.9780 C.3   217  VAL217      0.0290
     51  CG1      -40.3200  -20.3150   30.5130 C.3   217  VAL217      0.0023
     52  CG2      -39.5110  -19.4010   32.7220 C.3   217  VAL217      0.0023
     53  N        -43.9180  -19.7930   30.7920 N.am  218  VAL218     -0.1977
     54  CA       -45.0440  -20.4130   30.1340 C.3   218  VAL218      0.1596
     55  C        -44.6460  -21.1230   28.8440 C.2   218  VAL218      0.2287
     56  O        -45.1370  -22.1990   28.5380 O.2   218  VAL218     -0.2864
     57  CB       -46.1190  -19.3460   29.8890 C.3   218  VAL218      0.0276
     58  CG1      -47.2460  -19.8530   29.0200 C.3   218  VAL218      0.0022
     59  CG2      -46.6130  -18.8340   31.2130 C.3   218  VAL218      0.0022
     60  N        -55.1660  -20.9230   26.2380 N.3   240  LEU240     -0.1245
     61  CA       -53.9380  -20.1760   26.0170 C.3   240  LEU240      0.1561
     62  C        -53.3010  -20.5660   24.6840 C.2   240  LEU240      0.2260
     63  O        -53.1010  -21.7260   24.4000 O.2   240  LEU240     -0.2867
     64  CB       -52.9830  -20.4530   27.1710 C.3   240  LEU240      0.0270
     65  CG       -51.5760  -19.8870   27.0650 C.3   240  LEU240      0.0019
     66  CD1      -51.5870  -18.3830   27.1550 C.3   240  LEU240      0.0001
     67  CD2      -50.7340  -20.5170   28.1610 C.3   240  LEU240      0.0001
     68  N        -53.0330  -24.6570   24.8360 N.3   256  LYS256     -0.1245
     69  CA       -53.3530  -25.5270   25.9500 C.3   256  LYS256      0.1561
     70  C        -54.4050  -24.8840   26.8180 C.2   256  LYS256      0.2260
     71  O        -54.7040  -23.6940   26.7030 O.2   256  LYS256     -0.2867
     72  CB       -52.1280  -25.8530   26.7820 C.3   256  LYS256      0.0271
     73  CG       -51.4880  -24.7200   27.5430 C.3   256  LYS256      0.0035
     74  CD       -50.1540  -25.2510   28.0370 C.3   256  LYS256      0.0206
     75  CE       -49.6670  -24.6290   29.2510 C.3   256  LYS256      0.1093
     76  NZ       -48.4950  -25.4860   29.6520 N.3   256  LYS256     -0.1314
     77  N        -54.7100  -23.6980   30.4820 N.3   258  PRO258     -0.2102
     78  CA       -53.7260  -23.3670   31.5200 C.3   258  PRO258      0.1504
     79  C        -53.6960  -24.4210   32.6260 C.2   258  PRO258      0.2576
     80  O        -54.7450  -24.8330   33.0870 O.2   258  PRO258     -0.2718
     81  CB       -54.2240  -22.0140   32.0510 C.3   258  PRO258      0.0282
     82  CG       -54.9170  -21.4030   30.8810 C.3   258  PRO258      0.0208
     83  CD       -55.5700  -22.5510   30.1500 C.3   258  PRO258      0.0893
     84  N        -52.5060  -24.8490   33.0180 N.am  259  GLY259     -0.1943
     85  CA       -52.3630  -25.9110   33.9990 C.3   259  GLY259      0.2014
     86  C        -51.9930  -27.2430   33.3700 C.2   259  GLY259      0.2638
     87  O        -51.4090  -28.0900   34.0430 O.2   259  GLY259     -0.2714
     88  N        -52.3330  -27.4450   32.0960 N.am  260  GLU260     -0.1977
     89  CA       -51.8930  -28.6290   31.3690 C.3   260  GLU260      0.1602
     90  C        -50.3780  -28.5970   31.2480 C.2   260  GLU260      0.2287
     91  O        -49.7700  -27.5280   31.2020 O.2   260  GLU260     -0.2864
     92  CB       -52.5570  -28.7300   29.9840 C.3   260  GLU260      0.0415
     93  CG       -54.0320  -29.0960   30.0440 C.3   260  GLU260      0.1163
     94  CD       -54.7000  -29.2450   28.6900 C.2   260  GLU260      0.3649
     95  OE1      -54.2140  -28.6670   27.6820 O.co2 260  GLU260     -0.2457
     96  OE2      -55.7450  -29.9310   28.6270 O.co2 260  GLU260     -0.2457
@<TRIPOS>BOND
     1    63    62    2
     2    62    61    1
     3    68    69    1
     4    69    72    1
     5    69    70    1
     6    61    60    1
     7    61    64    1
     8    71    70    2
     9    72    73    1
    10    65    66    1
    11    65    64    1
    12    65    67    1
    13    73    74    1
    14    95    94   ar
    15    74    75    1
    16    56    55    2
    17    96    94   ar
    18    94    93    1
    19    55    54    1
    20    58    57    1
    21    11    10    2
    22    75    76    1
    23    12    13    1
    24    12     9    1
    25    10     9    1
    26    57    54    1
    27    57    59    1
    28    92    93    1
    29    92    89    1
    30    54    53    1
    31    13    14   ar
    32    13    15   ar
    33    83    77    1
    34    83    82    1
    35    14    16   ar
    36     9     8    1
    37    77    78    1
    38    51    50    1
    39    15    17   ar
    40    53    48   am
    41    82    81    1
    42    16    18   ar
    43    17    18   ar
    44    91    90    2
    45    90    89    1
    46    18    19    1
    47    89    88    1
    48    78    81    1
    49    78    79    1
    50    48    49    2
    51    48    47    1
    52    50    47    1
    53    50    52    1
    54    88    86   am
    55    47    46    1
    56    79    84   am
    57    79    80    2
    58    20    21    1
    59    84    85    1
    60     1     2    1
    61     2     3    1
    62     2     5    1
    63    86    85    1
    64    86    87    2
    65    42    41    2
    66     7     5    1
    67    46    41   am
    68    21    24    1
    69    21    22    1
    70     3     4    2
    71    26    28   ar
    72    26    25   ar
    73    41    40    1
    74    24    25    1
    75     5     6    1
    76    28    30   ar
    77    25    27   ar
    78    22    23    2
    79    44    43    1
    80    40    43    1
    81    40    39    1
    82    43    45    1
    83    30    31    1
    84    30    29   ar
    85    27    29   ar
    86    32    33    1
    87    33    34    1
    88    33    36    1
    89    37    36    1
    90    34    35    2
    91    36    38    1
