@<TRIPOS>MOLECULE
tmp/2bkmA00.pdb
 239 232 0 0 0
SMALL
GASTEIGER

@<TRIPOS>ATOM
      1  N          7.5120   -2.6900   -4.6400 N.3    24  TYR24      -0.1241
      2  CA         8.8320   -3.0220   -5.1930 C.3    24  TYR24       0.1605
      3  C          8.8850   -2.8750   -6.6860 C.2    24  TYR24       0.2264
      4  O          9.9710   -2.6090   -7.2380 O.2    24  TYR24      -0.2867
      5  CB         9.3930   -4.3450   -4.6830 C.3    24  TYR24       0.0534
      6  CG         9.8110   -4.1300   -3.2690 C.ar   24  TYR24      -0.0201
      7  CD1        9.0830   -4.6550   -2.2180 C.ar   24  TYR24      -0.0009
      8  CD2       10.8990   -3.3170   -2.9900 C.ar   24  TYR24      -0.0009
      9  CE1        9.4470   -4.3900   -0.9090 C.ar   24  TYR24       0.0417
     10  CE2       11.2690   -3.0380   -1.7070 C.ar   24  TYR24       0.0417
     11  CZ        10.5300   -3.5790   -0.6570 C.ar   24  TYR24       0.1957
     12  OH        10.8750   -3.3030    0.6450 O.3    24  TYR24      -0.2866
     13  N         16.2440    5.2340   -6.2220 N.3    33  LEU33      -0.1245
     14  CA        16.2790    4.0440   -5.3800 C.3    33  LEU33       0.1561
     15  C         16.9280    2.8450   -6.0180 C.2    33  LEU33       0.2260
     16  O         17.6970    2.1260   -5.3550 O.2    33  LEU33      -0.2867
     17  CB        14.8560    3.6730   -4.9240 C.3    33  LEU33       0.0270
     18  CG        14.1240    4.8180   -4.2340 C.3    33  LEU33       0.0019
     19  CD1       12.7510    4.2930   -3.9290 C.3    33  LEU33       0.0001
     20  CD2       14.8760    5.1880   -2.9810 C.3    33  LEU33       0.0001
     21  N         20.5300    1.5450   -5.2990 N.3    36  ILE36      -0.1231
     22  CA        20.9610    1.1190   -3.9610 C.3    36  ILE36       0.1692
     23  C         20.2480   -0.1340   -3.4450 C.2    36  ILE36       0.2592
     24  O         20.6160   -0.6950   -2.4180 O.2    36  ILE36      -0.2718
     25  CB        20.9240    2.2380   -2.8970 C.3    36  ILE36       0.0266
     26  CG1       19.4810    2.6660   -2.5550 C.3    36  ILE36       0.0019
     27  CG2       21.7760    3.4180   -3.3480 C.3    36  ILE36       0.0020
     28  CD1       19.3350    3.3720   -1.1860 C.3    36  ILE36       0.0001
     29  N         19.2280   -0.5560   -4.1790 N.am   37  PHE37      -0.1963
     30  CA        18.5370   -1.7820   -3.8530 C.3    37  PHE37       0.1756
     31  C         19.1480   -2.9110   -4.6680 C.2    37  PHE37       0.2461
     32  O         19.7120   -2.6350   -5.7280 O.2    37  PHE37      -0.2730
     33  CB        17.0530   -1.6360   -4.1970 C.3    37  PHE37       0.0574
     34  CG        16.2490   -1.0120   -3.0990 C.ar   37  PHE37      -0.0200
     35  CD1       15.6120   -1.8220   -2.1480 C.ar   37  PHE37      -0.0042
     36  CD2       16.1100    0.3660   -3.0090 C.ar   37  PHE37      -0.0042
     37  CE1       14.8650   -1.2580   -1.1350 C.ar   37  PHE37      -0.0003
     38  CE2       15.3980    0.9470   -1.9500 C.ar   37  PHE37      -0.0003
     39  CZ        14.7480    0.1470   -1.0350 C.ar   37  PHE37      -0.0000
     40  N         19.0000   -4.1770   -4.2110 N.am   38  PRO38      -0.2727
     41  CA        19.4820   -5.3240   -4.9780 C.3    38  PRO38       0.1402
     42  C         18.7420   -5.3930   -6.3010 C.2    38  PRO38       0.2269
     43  O         17.5930   -4.9470   -6.3960 O.2    38  PRO38      -0.2865
     44  CB        19.1070   -6.5200   -4.1060 C.3    38  PRO38       0.0296
     45  CG        18.9560   -5.9790   -2.7250 C.3    38  PRO38       0.0237
     46  CD        18.3810   -4.6000   -2.9400 C.3    38  PRO38       0.0939
     47  N         14.1610  -11.1500   -2.0610 N.3    43  GLU43      -0.1231
     48  CA        14.4050  -11.2610   -0.6550 C.3    43  GLU43       0.1699
     49  C         13.9380  -10.0110    0.0850 C.2    43  GLU43       0.2592
     50  O         13.3740  -10.0890    1.1760 O.2    43  GLU43      -0.2718
     51  CB        15.8860  -11.4750   -0.4260 C.3    43  GLU43       0.0402
     52  CG        16.2420  -11.7600    0.9620 C.3    43  GLU43       0.1161
     53  CD        17.7450  -11.9430    1.1110 C.2    43  GLU43       0.3649
     54  OE1       18.4410  -12.0830    0.0730 O.co2  43  GLU43      -0.2457
     55  OE2       18.2390  -11.9200    2.2630 O.co2  43  GLU43      -0.2457
     56  N         14.1580   -8.8560   -0.5450 N.am   44  THR44      -0.1953
     57  CA        13.7680   -7.6080    0.0880 C.3    44  THR44       0.1897
     58  C         12.2670   -7.5870    0.3240 C.2    44  THR44       0.2313
     59  O         11.7940   -7.1760    1.3830 O.2    44  THR44      -0.2863
     60  CB        14.1130   -6.4440   -0.8410 C.3    44  THR44       0.1794
     61  OG1       15.4990   -6.5390   -1.2070 O.3    44  THR44      -0.2208
     62  CG2       13.8440   -5.1310   -0.1340 C.3    44  THR44       0.0378
     63  N         11.1990   -9.7800    3.1490 N.3    47  LYS47      -0.1231
     64  CA        11.4870   -9.2010    4.4480 C.3    47  LYS47       0.1693
     65  C         10.5340   -8.0720    4.7570 C.2    47  LYS47       0.2591
     66  O         10.1060   -7.9260    5.8680 O.2    47  LYS47      -0.2718
     67  CB        12.8990   -8.6400    4.4640 C.3    47  LYS47       0.0285
     68  CG        13.9890   -9.7010    4.5190 C.3    47  LYS47       0.0035
     69  CD        15.3560   -9.0430    4.3710 C.3    47  LYS47       0.0206
     70  CE        16.4640  -10.0480    4.6110 C.3    47  LYS47       0.1093
     71  NZ        17.7880   -9.3700    4.4540 N.3    47  LYS47      -0.1314
     72  N         10.2160   -7.2610    3.7490 N.am   48  GLN48      -0.1979
     73  CA         9.3140   -6.1490    3.9800 C.3    48  GLN48       0.1601
     74  C          7.9000   -6.6140    4.2830 C.2    48  GLN48       0.2287
     75  O          7.2100   -6.0080    5.0880 O.2    48  GLN48      -0.2864
     76  CB         9.2890   -5.2660    2.7400 C.3    48  GLN48       0.0394
     77  CG         8.5630   -3.9300    2.9260 C.3    48  GLN48       0.0908
     78  CD         9.3120   -3.0010    3.8710 C.2    48  GLN48       0.2608
     79  OE1       10.0610   -2.1190    3.3980 O.2    48  GLN48      -0.2717
     80  NE2        9.1610   -3.1950    5.1750 N.am   48  GLN48      -0.0878
     81  N          8.1630   -7.5220    7.8190 N.3    51  PHE51      -0.1227
     82  CA         8.3130   -6.3680    8.6560 C.3    51  PHE51       0.1736
     83  C          7.0170   -5.5730    8.7990 C.2    51  PHE51       0.2595
     84  O          6.6430   -5.2200    9.8910 O.2    51  PHE51      -0.2718
     85  CB         9.4230   -5.4460    8.1510 C.3    51  PHE51       0.0547
     86  CG         9.5550   -4.2470    8.9990 C.ar   51  PHE51      -0.0202
     87  CD1       10.1420   -4.3640   10.2450 C.ar   51  PHE51      -0.0042
     88  CD2        8.9760   -3.0130    8.6220 C.ar   51  PHE51      -0.0042
     89  CE1       10.1920   -3.2420   11.1180 C.ar   51  PHE51      -0.0003
     90  CE2        9.0180   -1.9130    9.4520 C.ar   51  PHE51      -0.0003
     91  CZ         9.6100   -2.0010   10.7130 C.ar   51  PHE51      -0.0000
     92  N          6.3720   -5.2970    7.6730 N.am   52  LEU52      -0.1980
     93  CA         5.1970   -4.4510    7.7260 C.3    52  LEU52       0.1596
     94  C          4.0800   -5.1590    8.4940 C.2    52  LEU52       0.2287
     95  O          3.3450   -4.5270    9.2390 O.2    52  LEU52      -0.2864
     96  CB         4.7290   -4.0970    6.3230 C.3    52  LEU52       0.0297
     97  CG         5.6560   -3.1140    5.5820 C.3    52  LEU52       0.0022
     98  CD1        5.1250   -2.9360    4.2000 C.3    52  LEU52       0.0001
     99  CD2        5.7390   -1.7900    6.3390 C.3    52  LEU52       0.0001
    100  N          5.0710   -4.5280   12.0160 N.3    55  TYR55      -0.1241
    101  CA         4.9980   -3.1120   12.2580 C.3    55  TYR55       0.1605
    102  C          3.5790   -2.6510   12.4520 C.2    55  TYR55       0.2264
    103  O          3.3350   -1.7330   13.2280 O.2    55  TYR55      -0.2867
    104  CB         5.5260   -2.4770   11.0030 C.3    55  TYR55       0.0534
    105  CG         5.6490   -0.9850   10.9020 C.ar   55  TYR55      -0.0201
    106  CD1        4.7410   -0.2500   10.1370 C.ar   55  TYR55      -0.0009
    107  CD2        6.7110   -0.3300   11.4860 C.ar   55  TYR55      -0.0009
    108  CE1        4.9150    1.0730    9.9170 C.ar   55  TYR55       0.0417
    109  CE2        6.9080    1.0310   11.2660 C.ar   55  TYR55       0.0417
    110  CZ         5.9930    1.7150   10.4810 C.ar   55  TYR55       0.1957
    111  OH         6.1890    3.0470   10.2620 O.3    55  TYR55      -0.2866
    112  N          8.8270  -10.7450   11.2160 N.3    62  TYR62      -0.1241
    113  CA        10.1470  -10.3160   10.8700 C.3    62  TYR62       0.1605
    114  C         11.1540  -10.7270   11.9440 C.2    62  TYR62       0.2264
    115  O         12.1860  -11.3100   11.6250 O.2    62  TYR62      -0.2867
    116  CB        10.1660   -8.7850   10.6400 C.3    62  TYR62       0.0534
    117  CG        11.5520   -8.2840   10.2870 C.ar   62  TYR62      -0.0201
    118  CD1       11.9630   -8.1630    8.9590 C.ar   62  TYR62      -0.0009
    119  CD2       12.4890   -8.0060   11.3020 C.ar   62  TYR62      -0.0009
    120  CE1       13.2520   -7.7270    8.6430 C.ar   62  TYR62       0.0417
    121  CE2       13.7830   -7.5710   10.9810 C.ar   62  TYR62       0.0417
    122  CZ        14.1480   -7.4290    9.6730 C.ar   62  TYR62       0.1957
    123  OH        15.4290   -7.0340    9.4030 O.3    62  TYR62      -0.2866
    124  N         14.4940  -12.7780   11.3280 N.3    66  HIS66      -0.1241
    125  CA        15.6760  -11.9520   11.1440 C.3    66  HIS66       0.1621
    126  C         16.1730  -11.2750   12.4140 C.2    66  HIS66       0.2264
    127  O         17.1960  -10.6000   12.3690 O.2    66  HIS66      -0.2867
    128  CB        15.3840  -10.8670   10.0950 C.3    66  HIS66       0.0745
    129  CG        14.7390  -11.4050    8.8650 C.ar   66  HIS66       0.0817
    130  ND1       15.4380  -12.0970    7.9000 N.ar   66  HIS66      -0.2268
    131  CD2       13.4460  -11.4030    8.4610 C.ar   66  HIS66       0.1154
    132  CE1       14.6090  -12.4750    6.9440 C.ar   66  HIS66       0.1986
    133  NE2       13.3910  -12.0770    7.2700 N.ar   66  HIS66      -0.2212
    134  N         15.9220   -0.9490   12.5810 N.3    71  LEU71      -0.1245
    135  CA        15.8680   -0.5390   11.1950 C.3    71  LEU71       0.1561
    136  C         16.8360    0.5790   10.9350 C.2    71  LEU71       0.2260
    137  O         17.5050    0.5780    9.9290 O.2    71  LEU71      -0.2867
    138  CB        14.4770   -0.0650   10.8170 C.3    71  LEU71       0.0270
    139  CG        13.4070   -1.0620   10.3930 C.3    71  LEU71       0.0019
    140  CD1       12.3180   -0.1860    9.7860 C.3    71  LEU71       0.0001
    141  CD2       13.8690   -2.1050    9.4250 C.3    71  LEU71       0.0001
    142  N         20.2260   -0.8720   10.4490 N.3    74  ARG74      -0.1231
    143  CA        20.3700   -1.6120    9.2270 C.3    74  ARG74       0.1694
    144  C         20.4940   -0.6830    8.0370 C.2    74  ARG74       0.2592
    145  O         21.0540   -1.0750    7.0210 O.2    74  ARG74      -0.2718
    146  CB        19.1670   -2.5340    9.0500 C.3    74  ARG74       0.0321
    147  CG        19.0620   -3.6130   10.1160 C.3    74  ARG74       0.0489
    148  CD        17.9960   -4.6340    9.7260 C.3    74  ARG74       0.2205
    149  NE        17.6970   -5.5870   10.8080 N.pl3  74  ARG74      -0.0865
    150  CZ        18.1930   -6.8210   10.8890 C.cat  74  ARG74       0.5346
    151  NH1       19.0190   -7.2860    9.9520 N.pl3  74  ARG74       0.1354
    152  NH2       17.8230   -7.5950   11.9010 N.pl3  74  ARG74       0.1354
    153  N         19.8960    0.4980    8.1510 N.am   75  HIS75      -0.1976
    154  CA        19.9060    1.4430    7.0520 C.3    75  HIS75       0.1656
    155  C         21.1290    2.3190    7.0180 C.2    75  HIS75       0.2291
    156  O         21.3310    3.0170    6.0310 O.2    75  HIS75      -0.2864
    157  CB        18.6260    2.2710    7.0470 C.3    75  HIS75       0.0771
    158  CG        17.4380    1.5140    6.5220 C.ar   75  HIS75       0.0820
    159  ND1       16.7440    0.6190    7.3020 N.ar   75  HIS75      -0.2267
    160  CD2       16.8150    1.5380    5.3220 C.ar   75  HIS75       0.1154
    161  CE1       15.7360    0.1170    6.6020 C.ar   75  HIS75       0.1986
    162  NE2       15.7770    0.6310    5.3920 N.ar   75  HIS75      -0.2212
    163  N         23.4770    2.3540    3.9970 N.3    78  PHE78      -0.1241
    164  CA        23.1330    3.0290    2.7550 C.3    78  PHE78       0.1605
    165  C         23.0710    4.5220    3.0030 C.2    78  PHE78       0.2264
    166  O         22.8200    4.9870    4.1210 O.2    78  PHE78      -0.2867
    167  CB        21.7430    2.5950    2.2240 C.3    78  PHE78       0.0534
    168  CG        21.5530    1.1320    2.2380 C.ar   78  PHE78      -0.0203
    169  CD1       20.7660    0.5190    3.2200 C.ar   78  PHE78      -0.0042
    170  CD2       22.2080    0.3410    1.2900 C.ar   78  PHE78      -0.0042
    171  CE1       20.6210   -0.8640    3.2300 C.ar   78  PHE78      -0.0003
    172  CE2       22.0540   -1.0400    1.3040 C.ar   78  PHE78      -0.0003
    173  CZ        21.2700   -1.6170    2.2650 C.ar   78  PHE78      -0.0000
    174  N         20.9740    7.4150    2.9130 N.3    80  ILE80      -0.1245
    175  CA        19.5500    7.7730    2.8670 C.3    80  ILE80       0.1561
    176  C         19.4590    9.2660    3.1050 C.2    80  ILE80       0.2260
    177  O         19.4920    9.7750    4.2100 O.2    80  ILE80      -0.2867
    178  CB        18.7710    6.9990    3.8910 C.3    80  ILE80       0.0252
    179  CG1       18.9990    5.4910    3.6680 C.3    80  ILE80       0.0019
    180  CG2       17.2630    7.3380    3.7580 C.3    80  ILE80       0.0019
    181  CD1       18.1720    4.6090    4.5290 C.3    80  ILE80       0.0001
    182  N         16.0270   10.6640   -0.9840 N.3    84  ARG84      -0.1231
    183  CA        15.7640    9.2550   -1.1180 C.3    84  ARG84       0.1694
    184  C         14.5720    8.8480   -0.2630 C.2    84  ARG84       0.2591
    185  O         13.8120    7.9740   -0.6680 O.2    84  ARG84      -0.2718
    186  CB        17.0110    8.4130   -0.8140 C.3    84  ARG84       0.0321
    187  CG        17.9520    8.4300   -2.0120 C.3    84  ARG84       0.0489
    188  CD        19.1290    7.5040   -1.7680 C.3    84  ARG84       0.2205
    189  NE        19.8040    7.2750   -3.0430 N.pl3  84  ARG84      -0.0865
    190  CZ        21.0770    6.9140   -3.1410 C.cat  84  ARG84       0.5346
    191  NH1       21.5840    6.7000   -4.3360 N.pl3  84  ARG84       0.1354
    192  NH2       21.8140    6.7250   -2.0400 N.pl3  84  ARG84       0.1354
    193  N         14.4750    9.4190    0.9270 N.am   85  ALA85      -0.1980
    194  CA        13.2860    9.1500    1.7490 C.3    85  ALA85       0.1597
    195  C         12.0320    9.6020    1.0290 C.2    85  ALA85       0.2287
    196  O         11.0240    8.8550    1.0270 O.2    85  ALA85      -0.2864
    197  CB        13.3870    9.8070    3.0950 C.3    85  ALA85       0.0319
    198  N         11.2410    7.0080   -1.5860 N.3    88  TRP88      -0.1241
    199  CA        10.6740    5.8050   -1.0250 C.3    88  TRP88       0.1605
    200  C          9.1960    6.0730   -0.7070 C.2    88  TRP88       0.2264
    201  O          8.3300    5.2970   -1.0580 O.2    88  TRP88      -0.2867
    202  CB        11.4660    5.4810    0.2380 C.3    88  TRP88       0.0550
    203  CG        11.2250    4.1460    0.8470 C.ar   88  TRP88       0.0003
    204  CD1       12.0470    3.0470    0.7640 C.ar   88  TRP88       0.0946
    205  CD2       10.1160    3.7540    1.6640 C.ar   88  TRP88       0.0152
    206  NE1       11.5310    2.0030    1.4870 N.ar   88  TRP88      -0.2442
    207  CE2       10.3510    2.4040    2.0660 C.ar   88  TRP88       0.0810
    208  CE3        8.9860    4.4200    2.1520 C.ar   88  TRP88       0.0012
    209  CZ2        9.4380    1.6830    2.8390 C.ar   88  TRP88       0.0191
    210  CZ3        8.0670    3.6970    2.9560 C.ar   88  TRP88       0.0001
    211  CH2        8.3220    2.3520    3.3010 C.ar   88  TRP88       0.0015
    212  N          4.7820    5.4220    8.3950 N.3   113  LEU113     -0.1245
    213  CA         5.9170    5.2430    7.4860 C.3   113  LEU113      0.1561
    214  C          6.6700    6.5390    7.2560 C.2   113  LEU113      0.2260
    215  O          7.8940    6.5120    7.0910 O.2   113  LEU113     -0.2867
    216  CB         5.4210    4.6950    6.1660 C.3   113  LEU113      0.0270
    217  CG         4.8430    3.2810    6.2120 C.3   113  LEU113      0.0019
    218  CD1        4.3220    2.9680    4.8460 C.3   113  LEU113      0.0001
    219  CD2        5.8820    2.2670    6.6500 C.3   113  LEU113      0.0001
    220  N          8.9220    6.7300   10.2150 N.3   116  THR116     -0.1203
    221  CA        10.0210    5.7340   10.1330 C.3   116  THR116      0.1994
    222  C         11.0040    6.1760    9.0700 C.2   116  THR116      0.2617
    223  O         12.2140    6.1420    9.2860 O.2   116  THR116     -0.2717
    224  CB         9.4490    4.3570    9.8630 C.3   116  THR116      0.1784
    225  OG1        8.5340    4.0780   10.9410 O.3   116  THR116     -0.2211
    226  CG2       10.5950    3.3170    9.8440 C.3   116  THR116      0.0376
    227  N         10.5080    6.6270    7.9170 N.am  117  ALA117     -0.1979
    228  CA        11.4000    7.0440    6.8390 C.3   117  ALA117      0.1597
    229  C         12.2580    8.2100    7.3310 C.2   117  ALA117      0.2287
    230  O         13.4730    8.2650    7.0340 O.2   117  ALA117     -0.2864
    231  CB        10.5880    7.4240    5.5960 C.3   117  ALA117      0.0319
    232  N         15.0090    7.0120    9.2320 N.3   120  MET120     -0.1245
    233  CA        16.0340    6.2950    8.4680 C.3   120  MET120      0.1570
    234  C         17.0230    7.2800    7.8510 C.2   120  MET120      0.2261
    235  O         18.1590    6.9030    7.5580 O.2   120  MET120     -0.2867
    236  CB        15.4160    5.4340    7.3500 C.3   120  MET120      0.0387
    237  CG        14.4810    4.3260    7.7930 C.3   120  MET120      0.0595
    238  SD        15.2550    3.2380    8.9820 S.3   120  MET120     -0.1393
    239  CE        14.5900    3.8700   10.4820 C.3   120  MET120      0.0692
@<TRIPOS>BOND
     1     4     3    2
     2     3     2    1
     3    43    42    2
     4    42    41    1
     5    13    14    1
     6    15    14    1
     7    15    16    2
     8    32    31    2
     9    14    17    1
    10    21    22    1
    11     2     5    1
    12     2     1    1
    13    41    40    1
    14    41    44    1
    15    17    18    1
    16     5     6    1
    17    31    40   am
    18    31    30    1
    19   191   190    1
    20    18    19    1
    21    18    20    1
    22    40    46    1
    23    33    30    1
    24    33    34    1
    25    29    30    1
    26    29    23   am
    27    44    45    1
    28    22    23    1
    29    22    25    1
    30    23    24    2
    31    27    25    1
    32     6     8   ar
    33     6     7   ar
    34   190   189    2
    35   190   192    1
    36    34    36   ar
    37    34    35   ar
    38   189   188    1
    39    36    38   ar
    40     8    10   ar
    41    46    45    1
    42    25    26    1
    43    26    28    1
    44     7     9   ar
    45    35    37   ar
    46    47    48    1
    47   187   188    1
    48   187   186    1
    49    38    39   ar
    50    10    11   ar
    51   198   199    1
    52    61    60    1
    53    37    39   ar
    54   183   182    1
    55   183   186    1
    56   183   184    1
    57   201   200    2
    58   199   200    1
    59   199   202    1
    60     9    11   ar
    61    60    62    1
    62    60    57    1
    63   185   184    2
    64    11    12    1
    65    48    51    1
    66    48    49    1
    67    56    49   am
    68    56    57    1
    69    51    52    1
    70   184   193   am
    71    54    53   ar
    72    49    50    2
    73    57    58    1
    74   202   203    1
    75    58    59    2
    76   204   203   ar
    77   204   206   ar
    78   203   205   ar
    79   193   194    1
    80    52    53    1
    81   196   195    2
    82   195   194    1
    83    53    55   ar
    84   170   172   ar
    85   170   168   ar
    86   172   173   ar
    87   206   207   ar
    88   205   207   ar
    89   205   208   ar
    90   194   197    1
    91   207   209   ar
    92   208   210   ar
    93   167   168    1
    94   167   164    1
    95   168   169   ar
    96   173   171   ar
    97    76    77    1
    98    76    73    1
    99   164   165    1
   100   164   163    1
   101   209   211   ar
   102   175   174    1
   103   175   176    1
   104   175   178    1
   105    77    78    1
   106   210   211   ar
   107   165   166    2
   108   176   177    2
   109    63    64    1
   110   169   171   ar
   111    79    78    2
   112   179   178    1
   113   179   181    1
   114    72    73    1
   115    72    65   am
   116   180   178    1
   117    78    80   am
   118    73    74    1
   119    98    97    1
   120    74    75    2
   121    69    68    1
   122    69    70    1
   123    64    67    1
   124    64    65    1
   125    71    70    1
   126    67    68    1
   127    65    66    2
   128   218   217    1
   129   160   162   ar
   130   160   158   ar
   131   162   161   ar
   132    97    96    1
   133    97    99    1
   134   231   228    1
   135   156   155    2
   136   216   217    1
   137   216   213    1
   138   217   219    1
   139    96    93    1
   140   158   157    1
   141   158   159   ar
   142   161   159   ar
   143   228   229    1
   144   228   227    1
   145   132   133   ar
   146   132   130   ar
   147   155   154    1
   148   145   144    2
   149   230   229    2
   150   157   154    1
   151   154   153    1
   152   215   214    2
   153   214   213    1
   154   133   131   ar
   155   236   237    1
   156   236   233    1
   157   213   212    1
   158   235   234    2
   159    92    93    1
   160    92    83   am
   161    93    94    1
   162   237   238    1
   163    81    82    1
   164   234   233    1
   165   130   129   ar
   166   227   222   am
   167   144   153   am
   168   144   143    1
   169    85    82    1
   170    85    86    1
   171   131   129   ar
   172   233   232    1
   173    94    95    2
   174    88    86   ar
   175    88    90   ar
   176   120   118   ar
   177   120   122   ar
   178    82    83    1
   179    83    84    2
   180   129   128    1
   181   118   117   ar
   182   238   239    1
   183    86    87   ar
   184   146   143    1
   185   146   147    1
   186   222   223    2
   187   222   221    1
   188   143   142    1
   189   123   122    1
   190   141   139    1
   191    90    91   ar
   192   122   121   ar
   193   148   147    1
   194   148   149    1
   195   140   139    1
   196   226   224    1
   197   224   221    1
   198   224   225    1
   199   108   106   ar
   200   108   110   ar
   201   137   136    2
   202   151   150    1
   203   128   125    1
   204   221   220    1
   205   106   105   ar
   206    87    89   ar
   207   111   110    1
   208   117   116    1
   209   117   119   ar
   210   139   138    1
   211   110   109   ar
   212   116   113    1
   213    91    89   ar
   214   149   150    2
   215   138   135    1
   216   113   112    1
   217   113   114    1
   218   150   152    1
   219   105   104    1
   220   105   107   ar
   221   136   135    1
   222   121   119   ar
   223   104   101    1
   224   125   124    1
   225   125   126    1
   226   135   134    1
   227   109   107   ar
   228   115   114    2
   229   100   101    1
   230   101   102    1
   231   127   126    2
   232   102   103    2
