@<TRIPOS>MOLECULE
tmp/2bkvA00.pdb
 117 113 0 0 0
SMALL
GASTEIGER

@<TRIPOS>ATOM
      1  N         31.7180   19.6390  -16.2180 N.3    36  THR36      -0.1203
      2  CA        33.0600   19.1810  -16.5880 C.3    36  THR36       0.1994
      3  C         33.3960   19.7000  -17.9760 C.2    36  THR36       0.2618
      4  O         32.7840   20.6820  -18.4020 O.2    36  THR36      -0.2717
      5  CB        33.1830   17.6450  -16.5000 C.3    36  THR36       0.1784
      6  OG1       32.4480   17.0820  -17.5610 O.3    36  THR36      -0.2211
      7  CG2       32.6670   17.0910  -15.1760 C.3    36  THR36       0.0376
      8  N         34.4180   19.1170  -18.5940 N.am   37  GLY37      -0.1942
      9  CA        34.8940   19.5340  -19.8880 C.3    37  GLY37       0.2014
     10  C         36.0320   20.5560  -19.7850 C.2    37  GLY37       0.2639
     11  O         36.5020   20.8850  -18.6930 O.2    37  GLY37      -0.2714
     12  N         36.4680   21.0590  -20.9360 N.am   38  GLY38      -0.1939
     13  CA        37.5510   22.0090  -21.0040 C.3    38  GLY38       0.2014
     14  C         37.1900   23.3590  -20.4110 C.2    38  GLY38       0.2640
     15  O         38.0280   24.0300  -19.7880 O.2    38  GLY38      -0.2714
     16  N         35.9510   23.7850  -20.6390 N.am   39  THR39      -0.1937
     17  CA        35.6100   25.1620  -20.3380 C.3    39  THR39       0.2013
     18  C         35.8020   25.5350  -18.8660 C.2    39  THR39       0.2484
     19  O         36.4410   26.5510  -18.5940 O.2    39  THR39      -0.2729
     20  CB        34.2290   25.5140  -20.8020 C.3    39  THR39       0.1807
     21  OG1       34.0750   25.1660  -22.1800 O.3    39  THR39      -0.2208
     22  CG2       34.0140   26.9690  -20.6680 C.3    39  THR39       0.0379
     23  N         35.2920   24.7200  -17.9060 N.am   40  PRO40      -0.2726
     24  CA        35.4840   25.1300  -16.5060 C.3    40  PRO40       0.1402
     25  C         36.8210   24.8170  -15.8840 C.2    40  PRO40       0.2269
     26  O         36.9870   25.0060  -14.6790 O.2    40  PRO40      -0.2865
     27  CB        34.3790   24.3740  -15.7870 C.3    40  PRO40       0.0296
     28  CG        34.2100   23.1460  -16.5750 C.3    40  PRO40       0.0237
     29  CD        34.4410   23.5150  -18.0050 C.3    40  PRO40       0.0939
     30  N         28.2890   24.6240  -19.4120 N.3   132  GLY132     -0.1210
     31  CA        28.9220   24.9030  -20.6930 C.3   132  GLY132      0.1956
     32  C         27.8850   24.7860  -21.8000 C.2   132  GLY132      0.2612
     33  O         26.7180   24.4920  -21.5480 O.2   132  GLY132     -0.2717
     34  N         28.3010   25.0330  -23.0300 N.am  133  ILE133     -0.1965
     35  CA        27.4110   24.9610  -24.1590 C.3   133  ILE133      0.1727
     36  C         28.1090   24.1380  -25.2370 C.2   133  ILE133      0.2616
     37  O         29.3150   24.2210  -25.4320 O.2   133  ILE133     -0.2715
     38  CB        27.0060   26.3570  -24.6650 C.3   133  ILE133      0.0290
     39  CG1       25.8230   26.3190  -25.6240 C.3   133  ILE133      0.0022
     40  CG2       28.1920   27.0460  -25.2990 C.3   133  ILE133      0.0023
     41  CD1       25.2070   27.6840  -25.8960 C.3   133  ILE133      0.0001
     42  N         27.3650   23.2520  -25.8490 N.am  134  GLY134     -0.1955
     43  CA        27.8820   22.5450  -27.0120 C.3   134  GLY134      0.1869
     44  C         27.9520   23.4130  -28.2450 C.2   134  GLY134      0.2309
     45  O         27.2860   24.4520  -28.3490 O.2   134  GLY134     -0.2863
     46  N         23.8040   22.2970  -27.0590 N.3   138  HIS138     -0.1241
     47  CA        23.4330   21.4210  -25.9530 C.3   138  HIS138      0.1621
     48  C         23.8770   21.9980  -24.6340 C.2   138  HIS138      0.2264
     49  O         24.8160   22.7750  -24.5710 O.2   138  HIS138     -0.2867
     50  CB        23.9140   19.9840  -26.1120 C.3   138  HIS138      0.0745
     51  CG        25.3810   19.7480  -25.9680 C.ar  138  HIS138      0.0817
     52  ND1       26.0980   19.1100  -26.9520 N.ar  138  HIS138     -0.2268
     53  CD2       26.2420   19.9300  -24.9370 C.ar  138  HIS138      0.1154
     54  CE1       27.3490   18.9660  -26.5640 C.ar  138  HIS138      0.1986
     55  NE2       27.4640   19.4500  -25.3430 N.ar  138  HIS138     -0.2212
     56  N         24.2310   20.3960  -20.4810 N.3   140  GLY140     -0.1210
     57  CA        24.4210   18.9860  -20.0310 C.3   140  GLY140      0.1956
     58  C         24.6740   18.1000  -21.2550 C.2   140  GLY140      0.2611
     59  O         25.4580   18.4830  -22.1060 O.2   140  GLY140     -0.2717
     60  N         24.0240   16.9410  -21.3510 N.am  141  PHE141     -0.1976
     61  CA        23.9770   16.1920  -22.6360 C.3   141  PHE141      0.1639
     62  C         22.5550   16.1980  -23.2030 C.2   141  PHE141      0.2290
     63  O         22.0860   15.2450  -23.8490 O.2   141  PHE141     -0.2864
     64  CB        24.4790   14.7720  -22.4820 C.3   141  PHE141      0.0560
     65  CG        25.9680   14.6520  -22.2760 C.ar  141  PHE141     -0.0200
     66  CD1       26.4590   13.8730  -21.2440 C.ar  141  PHE141     -0.0042
     67  CD2       26.8670   15.2950  -23.1130 C.ar  141  PHE141     -0.0042
     68  CE1       27.8220   13.6880  -21.0780 C.ar  141  PHE141     -0.0003
     69  CE2       28.2480   15.1250  -22.9200 C.ar  141  PHE141     -0.0003
     70  CZ        28.7020   14.3340  -21.9170 C.ar  141  PHE141     -0.0000
     71  N         28.8410   15.4050  -30.5990 N.3   161  THR161     -0.1218
     72  CA        29.3230   15.3830  -29.2160 C.3   161  THR161      0.1862
     73  C         30.4530   14.3630  -28.9920 C.2   161  THR161      0.2287
     74  O         31.4620   14.6580  -28.3540 O.2   161  THR161     -0.2866
     75  CB        28.1430   15.1270  -28.2800 C.3   161  THR161      0.1770
     76  OG1       27.1790   16.1560  -28.5140 O.3   161  THR161     -0.2211
     77  CG2       28.5560   15.1190  -26.8170 C.3   161  THR161      0.0375
     78  N         34.3750   15.2990  -27.9960 N.3   165  ASN165     -0.1240
     79  CA        34.9630   14.7640  -26.7810 C.3   165  ASN165      0.1653
     80  C         36.0200   13.6830  -26.9890 C.2   165  ASN165      0.2266
     81  O         36.7300   13.3040  -26.0530 O.2   165  ASN165     -0.2867
     82  CB        33.8850   14.2440  -25.8170 C.3   165  ASN165      0.1155
     83  CG        33.0020   15.3470  -25.2810 C.2   165  ASN165      0.2627
     84  OD1       33.2450   16.5240  -25.5310 O.2   165  ASN165     -0.2716
     85  ND2       31.9930   14.9750  -24.5120 N.am  165  ASN165     -0.0877
     86  N         38.8560   13.9460  -28.1230 N.3   167  ARG167     -0.1231
     87  CA        40.1440   14.5090  -27.7020 C.3   167  ARG167      0.1694
     88  C         40.5800   14.0970  -26.3000 C.2   167  ARG167      0.2592
     89  O         41.7490   14.2390  -25.9480 O.2   167  ARG167     -0.2718
     90  CB        40.1660   16.0430  -27.8230 C.3   167  ARG167      0.0321
     91  CG        39.2310   16.7590  -26.8740 C.3   167  ARG167      0.0489
     92  CD        39.1100   18.2680  -27.1320 C.3   167  ARG167      0.2205
     93  NE        40.3260   19.0200  -26.7910 N.pl3 167  ARG167     -0.0865
     94  CZ        40.3560   20.2230  -26.2060 C.cat 167  ARG167      0.5346
     95  NH1       39.2330   20.8540  -25.8690 N.pl3 167  ARG167      0.1354
     96  NH2       41.5260   20.7970  -25.9340 N.pl3 167  ARG167      0.1354
     97  N         39.6390   13.6430  -25.4720 N.am  168  TYR168     -0.1976
     98  CA        39.9750   13.2110  -24.1300 C.3   168  TYR168      0.1639
     99  C         40.1610   11.7060  -24.0110 C.2   168  TYR168      0.2290
    100  O         40.5840   11.2150  -22.9810 O.2   168  TYR168     -0.2864
    101  CB        38.8670   13.6790  -23.1990 C.3   168  TYR168      0.0560
    102  CG        38.7880   15.1710  -23.1360 C.ar  168  TYR168     -0.0198
    103  CD1       37.6380   15.8490  -23.5180 C.ar  168  TYR168     -0.0009
    104  CD2       39.8950   15.9210  -22.7370 C.ar  168  TYR168     -0.0009
    105  CE1       37.5770   17.2330  -23.4510 C.ar  168  TYR168      0.0417
    106  CE2       39.8540   17.2960  -22.6720 C.ar  168  TYR168      0.0417
    107  CZ        38.6960   17.9470  -23.0390 C.ar  168  TYR168      0.1957
    108  OH        38.6780   19.3160  -22.9710 O.3   168  TYR168     -0.2866
    109  N         32.8050   27.8380  -30.3530 N.3   202  LYS202     -0.1245
    110  CA        31.4850   28.1350  -29.8060 C.3   202  LYS202      0.1561
    111  C         30.9110   29.4380  -30.3560 C.2   202  LYS202      0.2260
    112  O         29.8560   29.8940  -29.9300 O.2   202  LYS202     -0.2867
    113  CB        31.5800   28.2170  -28.2760 C.3   202  LYS202      0.0271
    114  CG        32.2080   26.9830  -27.6120 C.3   202  LYS202      0.0035
    115  CD        31.4010   25.7210  -27.8590 C.3   202  LYS202      0.0206
    116  CE        32.0460   24.5150  -27.1980 C.3   202  LYS202      0.1093
    117  NZ        32.0970   24.6100  -25.7050 N.3   202  LYS202     -0.1314
@<TRIPOS>BOND
     1    71    72    1
     2   111   112    2
     3   111   110    1
     4   109   110    1
     5   110   113    1
     6    72    73    1
     7    72    75    1
     8    73    74    2
     9    76    75    1
    10    45    44    2
    11    75    77    1
    12   113   114    1
    13    44    43    1
    14    86    87    1
    15    78    79    1
    16   115   114    1
    17   115   116    1
    18    90    87    1
    19    90    91    1
    20    87    88    1
    21   116   117    1
    22    92    91    1
    23    92    93    1
    24    46    47    1
    25    43    42    1
    26    80    79    1
    27    80    81    2
    28    52    54   ar
    29    52    51   ar
    30    93    94    2
    31    79    82    1
    32    54    55   ar
    33    88    89    2
    34    88    97   am
    35    94    96    1
    36    94    95    1
    37    50    51    1
    38    50    47    1
    39    51    53   ar
    40    47    48    1
    41    41    39    1
    42    42    36   am
    43    82    83    1
    44    39    38    1
    45    84    83    2
    46    97    98    1
    47    37    36    2
    48    55    53   ar
    49    40    38    1
    50    83    85   am
    51    36    35    1
    52    38    35    1
    53    48    49    2
    54    35    34    1
    55    98    99    1
    56    98   101    1
    57    99   100    2
    58    63    62    2
    59   103   105   ar
    60   103   102   ar
    61   105   107   ar
    62    62    61    1
    63   101   102    1
    64   102   104   ar
    65    67    69   ar
    66    67    65   ar
    67   107   108    1
    68   107   106   ar
    69    34    32   am
    70    69    70   ar
    71   104   106   ar
    72    61    64    1
    73    61    60    1
    74    64    65    1
    75    65    66   ar
    76    21    20    1
    77    59    58    2
    78    70    68   ar
    79    32    33    2
    80    32    31    1
    81    60    58   am
    82    58    57    1
    83    66    68   ar
    84    13    12    1
    85    13    14    1
    86    12    10   am
    87    20    22    1
    88    20    17    1
    89    31    30    1
    90    16    14   am
    91    16    17    1
    92    56    57    1
    93    14    15    2
    94    17    18    1
    95     9    10    1
    96     9     8    1
    97    10    11    2
    98    18    19    2
    99    18    23   am
   100     8     3   am
   101     4     3    2
   102    29    23    1
   103    29    28    1
   104     3     2    1
   105    23    24    1
   106     6     5    1
   107     2     5    1
   108     2     1    1
   109    28    27    1
   110    24    25    1
   111    24    27    1
   112     5     7    1
   113    25    26    2
