@<TRIPOS>MOLECULE
tmp/2bkvB00.pdb
 110 107 0 0 0
SMALL
GASTEIGER

@<TRIPOS>ATOM
      1  N         63.2290    1.6820  -19.3930 N.3    36  THR36      -0.1203
      2  CA        64.5600    2.1110  -18.9750 C.3    36  THR36       0.1994
      3  C         64.9370    1.4930  -17.6220 C.2    36  THR36       0.2618
      4  O         64.3380    0.5130  -17.2080 O.2    36  THR36      -0.2717
      5  CB        64.6560    3.6350  -18.9280 C.3    36  THR36       0.1784
      6  OG1       63.8320    4.1490  -17.8790 O.3    36  THR36      -0.2211
      7  CG2       64.2800    4.2690  -20.2590 C.3    36  THR36       0.0376
      8  N         65.9440    2.0360  -16.9570 N.am   37  GLY37      -0.1942
      9  CA        66.3900    1.5450  -15.6500 C.3    37  GLY37       0.2014
     10  C         67.5490    0.5760  -15.8100 C.2    37  GLY37       0.2639
     11  O         68.0320    0.3070  -16.9190 O.2    37  GLY37      -0.2714
     12  N         68.0340    0.0430  -14.6950 N.am   38  GLY38      -0.1939
     13  CA        69.1300   -0.9180  -14.7740 C.3    38  GLY38       0.2014
     14  C         68.7550   -2.2500  -15.3790 C.2    38  GLY38       0.2640
     15  O         69.5530   -2.8810  -16.0600 O.2    38  GLY38      -0.2714
     16  N         67.5320   -2.6950  -15.1300 N.am   39  THR39      -0.1937
     17  CA        67.1990   -4.0580  -15.5080 C.3    39  THR39       0.2013
     18  C         67.3670   -4.3750  -17.0000 C.2    39  THR39       0.2484
     19  O         67.9810   -5.3860  -17.3160 O.2    39  THR39      -0.2729
     20  CB        65.8220   -4.4620  -15.0220 C.3    39  THR39       0.1807
     21  OG1       65.6880   -4.2170  -13.6220 O.3    39  THR39      -0.2208
     22  CG2       65.6000   -5.9020  -15.2870 C.3    39  THR39       0.0379
     23  N         66.8690   -3.5180  -17.9170 N.am   40  PRO40      -0.2726
     24  CA        67.0050   -3.8770  -19.3340 C.3    40  PRO40       0.1402
     25  C         68.3520   -3.5260  -19.9710 C.2    40  PRO40       0.2269
     26  O         68.5180   -3.6920  -21.1870 O.2    40  PRO40      -0.2865
     27  CB        65.9120   -3.0530  -19.9800 C.3    40  PRO40       0.0296
     28  CG        65.8070   -1.8450  -19.1780 C.3    40  PRO40       0.0237
     29  CD        66.0240   -2.3030  -17.7640 C.3    40  PRO40       0.0939
     30  N         59.8170   -3.5250  -16.4780 N.3   132  GLY132     -0.1210
     31  CA        60.4330   -3.8880  -15.2110 C.3   132  GLY132      0.1956
     32  C         59.4330   -3.8250  -14.0950 C.2   132  GLY132      0.2612
     33  O         58.2540   -3.5170  -14.3290 O.2   132  GLY132     -0.2717
     34  N         59.8850   -4.1030  -12.8760 N.am  133  ILE133     -0.1965
     35  CA        58.9920   -4.0190  -11.7400 C.3   133  ILE133      0.1727
     36  C         59.6920   -3.2400  -10.6280 C.2   133  ILE133      0.2616
     37  O         60.9040   -3.3520  -10.4130 O.2   133  ILE133     -0.2715
     38  CB        58.5900   -5.4320  -11.2630 C.3   133  ILE133      0.0290
     39  CG1       57.4680   -5.4020  -10.2370 C.3   133  ILE133      0.0022
     40  CG2       59.8080   -6.2040  -10.7510 C.3   133  ILE133      0.0023
     41  CD1       56.8270   -6.7320  -10.0210 C.3   133  ILE133      0.0001
     42  N         58.9490   -2.3680   -9.9830 N.am  134  GLY134     -0.1955
     43  CA        59.4660   -1.6420   -8.8240 C.3   134  GLY134      0.1869
     44  C         59.5340   -2.5300   -7.6030 C.2   134  GLY134      0.2309
     45  O         58.8560   -3.5830   -7.5250 O.2   134  GLY134     -0.2863
     46  N         55.3920   -1.4580   -8.7070 N.3   138  HIS138     -0.1241
     47  CA        54.9990   -0.5630   -9.7810 C.3   138  HIS138      0.1621
     48  C         55.4370   -1.0800  -11.1370 C.2   138  HIS138      0.2264
     49  O         56.4270   -1.7820  -11.2590 O.2   138  HIS138     -0.2867
     50  CB        55.4790    0.8770   -9.5890 C.3   138  HIS138      0.0745
     51  CG        56.9470    1.1080   -9.7390 C.ar  138  HIS138      0.0817
     52  ND1       57.6780    1.7160   -8.7480 N.ar  138  HIS138     -0.2268
     53  CD2       57.8010    0.9180  -10.7700 C.ar  138  HIS138      0.1154
     54  CE1       58.9280    1.8660   -9.1530 C.ar  138  HIS138      0.1986
     55  NE2       59.0290    1.4000  -10.3790 N.ar  138  HIS138     -0.2212
     56  N         55.7700    0.7260  -15.1130 N.3   140  GLY140     -0.1210
     57  CA        55.9670    2.1460  -15.4910 C.3   140  GLY140      0.1956
     58  C         56.1880    2.9350  -14.2110 C.2   140  GLY140      0.2611
     59  O         56.9520    2.5260  -13.3730 O.2   140  GLY140     -0.2717
     60  N         55.5200    4.0790  -14.0460 N.am  141  PHE141     -0.1976
     61  CA        55.4600    4.7470  -12.7610 C.3   141  PHE141      0.1639
     62  C         54.0260    4.7210  -12.2370 C.2   141  PHE141      0.2290
     63  O         53.5800    5.6470  -11.5900 O.2   141  PHE141     -0.2864
     64  CB        56.0020    6.1580  -12.8530 C.3   141  PHE141      0.0560
     65  CG        57.4890    6.2410  -13.0390 C.ar  141  PHE141     -0.0200
     66  CD1       58.0030    7.0450  -14.0330 C.ar  141  PHE141     -0.0042
     67  CD2       58.3650    5.6200  -12.1680 C.ar  141  PHE141     -0.0042
     68  CE1       59.3660    7.1980  -14.1990 C.ar  141  PHE141     -0.0003
     69  CE2       59.7540    5.7590  -12.3290 C.ar  141  PHE141     -0.0003
     70  CZ        60.2360    6.5720  -13.3480 C.ar  141  PHE141     -0.0000
     71  N         65.9810    5.4570   -7.3040 N.3   165  ASN165     -0.1240
     72  CA        66.5800    6.0420   -8.4760 C.3   165  ASN165      0.1653
     73  C         67.6280    7.1200   -8.1500 C.2   165  ASN165      0.2266
     74  O         68.3210    7.5950   -9.0360 O.2   165  ASN165     -0.2867
     75  CB        65.5120    6.6210   -9.3920 C.3   165  ASN165      0.1155
     76  CG        64.6600    5.5490  -10.0450 C.2   165  ASN165      0.2627
     77  OD1       64.8560    4.3770   -9.7900 O.2   165  ASN165     -0.2716
     78  ND2       63.7620    5.9440  -10.9350 N.am  165  ASN165     -0.0877
     79  N         70.5240    6.8660   -7.0190 N.3   167  ARG167     -0.1231
     80  CA        71.8270    6.4190   -7.4920 C.3   167  ARG167      0.1694
     81  C         72.2390    7.0170   -8.8400 C.2   167  ARG167      0.2592
     82  O         73.4330    7.1020   -9.1580 O.2   167  ARG167     -0.2718
     83  CB        71.8750    4.8680   -7.5440 C.3   167  ARG167      0.0321
     84  CG        70.9770    4.1970   -8.5800 C.3   167  ARG167      0.0489
     85  CD        70.5860    2.7070   -8.2580 C.3   167  ARG167      0.2205
     86  NE        70.1280    1.9250   -9.4310 N.pl3 167  ARG167     -0.0865
     87  CZ        68.9280    1.3410   -9.6100 C.cat 167  ARG167      0.5346
     88  NH1       67.9630    1.4130   -8.6970 N.pl3 167  ARG167      0.1354
     89  NH2       68.6640    0.6600  -10.7460 N.pl3 167  ARG167      0.1354
     90  N         71.2700    7.4390   -9.6510 N.am  168  TYR168     -0.1976
     91  CA        71.5810    7.9230  -10.9840 C.3   168  TYR168      0.1639
     92  C         71.7840    9.4400  -11.0380 C.2   168  TYR168      0.2290
     93  O         72.2020    9.9890  -12.0460 O.2   168  TYR168     -0.2864
     94  CB        70.4730    7.5110  -11.9510 C.3   168  TYR168      0.0560
     95  CG        70.3760    6.0350  -12.1080 C.ar  168  TYR168     -0.0198
     96  CD1       69.2660    5.3320  -11.6670 C.ar  168  TYR168     -0.0009
     97  CD2       71.4320    5.3210  -12.6690 C.ar  168  TYR168     -0.0009
     98  CE1       69.2000    3.9750  -11.8200 C.ar  168  TYR168      0.0417
     99  CE2       71.3780    3.9940  -12.8120 C.ar  168  TYR168      0.0417
    100  CZ        70.2650    3.3090  -12.3950 C.ar  168  TYR168      0.1957
    101  OH        70.2660    1.9330  -12.5550 O.3   168  TYR168     -0.2866
    102  N         64.4650   -7.0890   -5.6860 N.3   202  LYS202     -0.1245
    103  CA        63.1530   -7.4270   -6.2420 C.3   202  LYS202      0.1561
    104  C         62.5500   -8.7130   -5.6950 C.2   202  LYS202      0.2260
    105  O         61.4680   -9.1020   -6.1240 O.2   202  LYS202     -0.2867
    106  CB        63.2360   -7.5250   -7.7690 C.3   202  LYS202      0.0271
    107  CG        63.8640   -6.2910   -8.4120 C.3   202  LYS202      0.0035
    108  CD        63.0550   -5.0100   -8.1100 C.3   202  LYS202      0.0206
    109  CE        63.7050   -3.7920   -8.8140 C.3   202  LYS202      0.1093
    110  NZ        63.6600   -3.8870  -10.3190 N.3   202  LYS202     -0.1314
@<TRIPOS>BOND
     1    26    25    2
     2     7     5    1
     3    27    24    1
     4    27    28    1
     5    25    24    1
     6     1     2    1
     7    24    23    1
     8    28    29    1
     9     2     5    1
    10     2     3    1
    11     5     6    1
    12    23    29    1
    13    23    18   am
    14     3     4    2
    15     3     8   am
    16    19    18    2
    17    18    17    1
    18     8     9    1
    19    11    10    2
    20    30    31    1
    21    15    14    2
    22    10     9    1
    23    10    12   am
    24    17    16    1
    25    17    20    1
    26    57    56    1
    27    57    58    1
    28    14    16   am
    29    14    13    1
    30    22    20    1
    31    31    32    1
    32    20    21    1
    33    13    12    1
    34    33    32    2
    35    58    60   am
    36    58    59    2
    37    68    66   ar
    38    68    70   ar
    39    32    34   am
    40    60    61    1
    41    66    65   ar
    42    70    69   ar
    43    65    64    1
    44    65    67   ar
    45    34    35    1
    46    64    61    1
    47    99    97   ar
    48    99   100   ar
    49    61    62    1
    50    97    95   ar
    51   101   100    1
    52   100    98   ar
    53    69    67   ar
    54    62    63    2
    55    95    94    1
    56    95    96   ar
    57    93    92    2
    58    94    91    1
    59    98    96   ar
    60    35    38    1
    61    35    36    1
    62    38    40    1
    63    38    39    1
    64    49    48    2
    65    48    47    1
    66    92    91    1
    67    91    90    1
    68    78    76   am
    69    53    55   ar
    70    53    51   ar
    71    89    87    1
    72    36    37    2
    73    36    42   am
    74    55    54   ar
    75   110   109    1
    76    39    41    1
    77    76    77    2
    78    76    75    1
    79    42    43    1
    80    47    50    1
    81    47    46    1
    82    51    50    1
    83    51    52   ar
    84    90    81   am
    85    87    86    2
    86    87    88    1
    87    86    85    1
    88    75    72    1
    89    82    81    2
    90    54    52   ar
    91    74    73    2
    92    81    80    1
    93    43    44    1
    94   109   108    1
    95    84    85    1
    96    84    83    1
    97    72    73    1
    98    72    71    1
    99   107   108    1
   100   107   106    1
   101   106   103    1
   102    44    45    2
   103    83    80    1
   104    80    79    1
   105   103   104    1
   106   103   102    1
   107   105   104    2
