@<TRIPOS>MOLECULE
tmp/2bkwA00.pdb
 114 107 0 0 0
SMALL
GASTEIGER

@<TRIPOS>ATOM
      1  N        -16.0760   59.4200   18.0150 N.3     9  PRO9       -0.2116
      2  CA       -15.5530   58.3660   17.1430 C.3     9  PRO9        0.1372
      3  C        -16.2080   58.2890   15.7660 C.2     9  PRO9        0.2244
      4  O        -16.8030   57.2690   15.4030 O.2     9  PRO9       -0.2868
      5  CB       -15.7620   57.1010   17.9730 C.3     9  PRO9        0.0268
      6  CG       -16.9730   57.4250   18.7770 C.3     9  PRO9        0.0207
      7  CD       -16.7260   58.8470   19.2050 C.3     9  PRO9        0.0892
      8  N        -22.8700   54.6400    3.9450 N.3    65  SER65      -0.1202
      9  CA       -22.0930   54.7960    5.1660 C.3    65  SER65       0.2020
     10  C        -21.5020   53.4340    5.5330 C.2    65  SER65       0.2619
     11  O        -21.7380   52.4500    4.8400 O.2    65  SER65      -0.2717
     12  CB       -22.9960   55.3230    6.2800 C.3    65  SER65       0.2103
     13  OG       -24.1780   54.5430    6.3880 O.3    65  SER65      -0.2182
     14  N        -20.7210   53.3720    6.6010 N.am   66  GLY66      -0.1942
     15  CA       -20.1480   52.0990    6.9960 C.3    66  GLY66       0.2014
     16  C        -21.1900   50.9970    7.0160 C.2    66  GLY66       0.2639
     17  O        -20.9570   49.9000    6.5290 O.2    66  GLY66      -0.2714
     18  N        -22.3550   51.2980    7.5700 N.am   67  THR67      -0.1950
     19  CA       -23.4480   50.3360    7.6740 C.3    67  THR67       0.1897
     20  C        -23.7750   49.6280    6.3690 C.2    67  THR67       0.2313
     21  O        -24.2040   48.4770    6.3810 O.2    67  THR67      -0.2863
     22  CB       -24.7410   51.0200    8.1890 C.3    67  THR67       0.1794
     23  OG1      -24.4880   51.6070    9.4680 O.3    67  THR67      -0.2208
     24  CG2      -25.8710   50.0110    8.3330 C.3    67  THR67       0.0378
     25  N        -22.4490   46.1890    5.7530 N.3    70  TRP70      -0.1241
     26  CA       -23.1450   45.0140    6.2650 C.3    70  TRP70       0.1605
     27  C        -24.1040   44.5190    5.1930 C.2    70  TRP70       0.2264
     28  O        -24.0790   43.3490    4.8140 O.2    70  TRP70      -0.2867
     29  CB       -23.9310   45.3470    7.5350 C.3    70  TRP70       0.0550
     30  CG       -23.1040   45.9060    8.6530 C.ar   70  TRP70       0.0003
     31  CD1      -21.7490   45.8300    8.7910 C.ar   70  TRP70       0.0946
     32  CD2      -23.5860   46.6050    9.8140 C.ar   70  TRP70       0.0152
     33  NE1      -21.3570   46.4380    9.9610 N.ar   70  TRP70      -0.2442
     34  CE2      -22.4650   46.9220   10.6080 C.ar   70  TRP70       0.0810
     35  CE3      -24.8580   46.9930   10.2600 C.ar   70  TRP70       0.0012
     36  CZ2      -22.5760   47.6110   11.8230 C.ar   70  TRP70       0.0191
     37  CZ3      -24.9640   47.6790   11.4740 C.ar   70  TRP70       0.0001
     38  CH2      -23.8290   47.9790   12.2360 C.ar   70  TRP70       0.0015
     39  N        -22.3040   47.3620   17.8130 N.3    95  PHE95      -0.1241
     40  CA       -22.2330   47.2090   16.3740 C.3    95  PHE95       0.1605
     41  C        -22.1480   45.7720   15.9000 C.2    95  PHE95       0.2264
     42  O        -22.6690   45.4430   14.8360 O.2    95  PHE95      -0.2867
     43  CB       -21.0870   48.0530   15.8370 C.3    95  PHE95       0.0534
     44  CG       -21.2710   49.5150   16.1020 C.ar   95  PHE95      -0.0203
     45  CD1      -20.8460   50.0790   17.2980 C.ar   95  PHE95      -0.0042
     46  CD2      -21.9490   50.3180   15.1910 C.ar   95  PHE95      -0.0042
     47  CE1      -21.0990   51.4280   17.5800 C.ar   95  PHE95      -0.0003
     48  CE2      -22.2020   51.6600   15.4660 C.ar   95  PHE95      -0.0003
     49  CZ       -21.7790   52.2150   16.6580 C.ar   95  PHE95      -0.0000
     50  N        -15.9720   42.4440   14.5770 N.3   142  THR142     -0.1218
     51  CA       -15.9680   43.8910   14.5180 C.3   142  THR142      0.1862
     52  C        -14.5900   44.2510   15.0550 C.2   142  THR142      0.2287
     53  O        -14.3780   44.2580   16.2620 O.2   142  THR142     -0.2866
     54  CB       -17.0730   44.4530   15.4230 C.3   142  THR142      0.1770
     55  OG1      -18.3240   43.8380   15.0780 O.3   142  THR142     -0.2211
     56  CG2      -17.1870   45.9580   15.2680 C.3   142  THR142      0.0375
     57  N        -12.9510   46.8350   15.7400 N.3   144  VAL144     -0.1245
     58  CA       -12.9990   47.7550   16.8570 C.3   144  VAL144      0.1561
     59  C        -14.4640   48.1090   17.0100 C.2   144  VAL144      0.2260
     60  O        -15.0740   48.6410   16.0870 O.2   144  VAL144     -0.2867
     61  CB       -12.1930   49.0370   16.5910 C.3   144  VAL144      0.0252
     62  CG1      -12.5760   50.1080   17.6040 C.3   144  VAL144      0.0019
     63  CG2      -10.7050   48.7410   16.6930 C.3   144  VAL144      0.0019
     64  N        -16.9650   50.4620   18.3270 N.3   146  THR146     -0.1218
     65  CA       -17.0040   51.8170   18.8330 C.3   146  THR146      0.1862
     66  C        -17.8820   52.0320   20.0600 C.2   146  THR146      0.2287
     67  O        -17.7750   53.0600   20.7170 O.2   146  THR146     -0.2866
     68  CB       -17.4450   52.7550   17.7200 C.3   146  THR146      0.1770
     69  OG1      -16.4160   52.8030   16.7280 O.3   146  THR146     -0.2211
     70  CG2      -17.6920   54.1490   18.2480 C.3   146  THR146      0.0375
     71  N        -15.6210   43.9120   10.2120 N.3   173  ASP173     -0.1239
     72  CA       -16.2060   45.2470   10.2230 C.3   173  ASP173      0.1674
     73  C        -15.0290   46.1100   10.6590 C.2   173  ASP173      0.2266
     74  O        -14.7310   46.2170   11.8450 O.2   173  ASP173     -0.2867
     75  CB       -17.3270   45.3490   11.2540 C.3   173  ASP173      0.1410
     76  CG       -17.8930   46.7560   11.3650 C.2   173  ASP173      0.3668
     77  OD1      -17.1300   47.7320   11.2480 O.co2 173  ASP173     -0.2456
     78  OD2      -19.1060   46.8920   11.5930 O.co2 173  ASP173     -0.2456
     79  N        -14.7250   49.3830   10.0570 N.3   175  VAL175     -0.1231
     80  CA       -15.1400   50.7690   10.0500 C.3   175  VAL175      0.1692
     81  C        -14.3260   51.6870   10.9610 C.2   175  VAL175      0.2592
     82  O        -13.9810   52.7990   10.5790 O.2   175  VAL175     -0.2718
     83  CB       -16.6080   50.8650   10.4280 C.3   175  VAL175      0.0266
     84  CG1      -17.0000   52.3080   10.5810 C.3   175  VAL175      0.0020
     85  CG2      -17.4500   50.1850    9.3530 C.3   175  VAL175      0.0020
     86  N        -14.0050   51.2180   12.1570 N.am  176  CYS176     -0.1970
     87  CA       -13.2670   52.0420   13.0940 C.3   176  CYS176      0.1712
     88  C        -11.8520   51.5250   13.3620 C.2   176  CYS176      0.2296
     89  O        -11.2780   51.7880   14.4190 O.2   176  CYS176     -0.2864
     90  CB       -14.0660   52.1350   14.3970 C.3   176  CYS176      0.0983
     91  SG       -13.6190   53.5020   15.4820 S.3   176  CYS176     -0.0798
     92  N        -15.5790   52.8440    6.6650 N.3   196  ALA196     -0.1245
     93  CA       -16.3160   54.0380    6.3080 C.3   196  ALA196      0.1562
     94  C        -15.3420   55.1390    5.9560 C.2   196  ALA196      0.2260
     95  O        -14.1400   54.9800    6.0950 O.2   196  ALA196     -0.2867
     96  CB       -17.2010   54.4570    7.4740 C.3   196  ALA196      0.0290
     97  N        -15.6290   58.4500    7.2640 N.3   198  GLN198     -0.1231
     98  CA       -15.4500   59.3780    8.3950 C.3   198  GLN198      0.1698
     99  C        -14.6720   58.9450    9.6210 C.2   198  GLN198      0.2592
    100  O        -14.5360   59.7340   10.5590 O.2   198  GLN198     -0.2718
    101  CB       -16.7910   59.9240    8.9160 C.3   198  GLN198      0.0381
    102  CG       -18.0150   59.4400    8.2190 C.3   198  GLN198      0.0905
    103  CD       -18.3400   57.9960    8.4820 C.2   198  GLN198      0.2608
    104  OE1      -18.6740   57.6090    9.6030 O.2   198  GLN198     -0.2717
    105  NE2      -18.2580   57.1870    7.4410 N.am  198  GLN198     -0.0878
    106  N        -14.1840   57.7180    9.6690 N.am  199  LYS199     -0.1980
    107  CA       -13.4290   57.3440   10.8520 C.3   199  LYS199      0.1596
    108  C        -11.9450   57.6230   10.5670 C.2   199  LYS199      0.2287
    109  O        -11.6210   58.6430    9.9550 O.2   199  LYS199     -0.2864
    110  CB       -13.6980   55.8790   11.2190 C.3   199  LYS199      0.0298
    111  CG       -15.1960   55.5420   11.3960 C.3   199  LYS199      0.0038
    112  CD       -15.7550   55.9890   12.7370 C.3   199  LYS199      0.0206
    113  CE       -17.2890   55.8530   12.8370 C.3   199  LYS199      0.1093
    114  NZ       -17.8670   54.4780   12.8970 N.3   199  LYS199     -0.1314
@<TRIPOS>BOND
     1     8     9    1
     2    28    27    2
     3    11    10    2
     4     9    10    1
     5     9    12    1
     6    27    26    1
     7    10    14   am
     8    25    26    1
     9    94    95    2
    10    94    93    1
    11    26    29    1
    12    12    13    1
    13    93    92    1
    14    93    96    1
    15    20    21    2
    16    20    19    1
    17    17    16    2
    18    14    15    1
    19    15    16    1
    20    16    18   am
    21    97    98    1
    22   105   103   am
    23    29    30    1
    24    18    19    1
    25    19    22    1
    26    22    24    1
    27    22    23    1
    28   102   103    1
    29   102   101    1
    30    98   101    1
    31    98    99    1
    32   103   104    2
    33    30    31   ar
    34    30    32   ar
    35    31    33   ar
    36    85    83    1
    37    99   106   am
    38    99   100    2
    39   106   107    1
    40    32    35   ar
    41    32    34   ar
    42   109   108    2
    43    33    34   ar
    44    80    79    1
    45    80    83    1
    46    80    81    1
    47    71    72    1
    48    72    73    1
    49    72    75    1
    50    35    37   ar
    51    83    84    1
    52   108   107    1
    53    82    81    2
    54    34    36   ar
    55    73    74    2
    56   107   110    1
    57    81    86   am
    58   110   111    1
    59    77    76   ar
    60    75    76    1
    61    76    78   ar
    62   111   112    1
    63    37    38   ar
    64    36    38   ar
    65    86    87    1
    66   112   113    1
    67   113   114    1
    68    87    88    1
    69    87    90    1
    70    88    89    2
    71    90    91    1
    72    51    50    1
    73    51    52    1
    74    51    54    1
    75    42    41    2
    76    52    53    2
    77    55    54    1
    78    46    48   ar
    79    46    44   ar
    80    56    54    1
    81     4     3    2
    82    48    49   ar
    83    57    58    1
    84     3     2    1
    85    43    44    1
    86    43    40    1
    87    41    40    1
    88    60    59    2
    89    44    45   ar
    90    40    39    1
    91    61    63    1
    92    61    58    1
    93    61    62    1
    94    49    47   ar
    95    69    68    1
    96    58    59    1
    97     2     5    1
    98     2     1    1
    99    45    47   ar
   100    68    70    1
   101    68    65    1
   102     5     6    1
   103     1     7    1
   104    64    65    1
   105     6     7    1
   106    65    66    1
   107    66    67    2
