@<TRIPOS>MOLECULE
tmp/2bkxB00.pdb
 159 156 0 0 0
SMALL
GASTEIGER

@<TRIPOS>ATOM
      1  N         61.2190    0.0370  -22.1180 N.3    35  ALA35      -0.1231
      2  CA        61.3900    0.4590  -20.7220 C.3    35  ALA35       0.1694
      3  C         62.8270    0.9180  -20.4940 C.2    35  ALA35       0.2593
      4  O         63.7580    0.5110  -21.1970 O.2    35  ALA35      -0.2718
      5  CB        61.1110   -0.7190  -19.8040 C.3    35  ALA35       0.0304
      6  N         63.0000    1.7690  -19.4940 N.am   36  THR36      -0.1939
      7  CA        64.3150    2.2030  -19.0760 C.3    36  THR36       0.2028
      8  C         64.6280    1.5740  -17.7230 C.2    36  THR36       0.2643
      9  O         64.0060    0.5900  -17.3140 O.2    36  THR36      -0.2714
     10  CB        64.4170    3.7170  -19.0430 C.3    36  THR36       0.1808
     11  OG1       63.4850    4.2030  -18.0840 O.3    36  THR36      -0.2208
     12  CG2       64.1100    4.3520  -20.3980 C.3    36  THR36       0.0379
     13  N         65.6100    2.1290  -17.0300 N.am   37  GLY37      -0.1939
     14  CA        66.0250    1.6070  -15.7410 C.3    37  GLY37       0.2014
     15  C         67.1900    0.6420  -15.8340 C.2    37  GLY37       0.2639
     16  O         67.7410    0.3640  -16.9090 O.2    37  GLY37      -0.2714
     17  N         67.5910    0.1160  -14.6920 N.am   38  GLY38      -0.1939
     18  CA        68.6680   -0.8460  -14.6790 C.3    38  GLY38       0.2014
     19  C         68.3470   -2.1840  -15.3120 C.2    38  GLY38       0.2640
     20  O         69.2120   -2.8320  -15.9480 O.2    38  GLY38      -0.2714
     21  N         67.1110   -2.6440  -15.1100 N.am   39  THR39      -0.1937
     22  CA        66.8300   -4.0090  -15.4570 C.3    39  THR39       0.2013
     23  C         67.0520   -4.3430  -16.9340 C.2    39  THR39       0.2484
     24  O         67.6450   -5.3660  -17.1960 O.2    39  THR39      -0.2729
     25  CB        65.4070   -4.4080  -15.0380 C.3    39  THR39       0.1807
     26  OG1       65.1940   -4.0910  -13.6500 O.3    39  THR39      -0.2208
     27  CG2       65.2450   -5.9240  -15.1780 C.3    39  THR39       0.0379
     28  N         66.6110   -3.4970  -17.8750 N.am   40  PRO40      -0.2726
     29  CA        66.7440   -3.9090  -19.2840 C.3    40  PRO40       0.1402
     30  C         68.0940   -3.5590  -19.9140 C.2    40  PRO40       0.2269
     31  O         68.2700   -3.7320  -21.1100 O.2    40  PRO40      -0.2865
     32  CB        65.5820   -3.1650  -19.9690 C.3    40  PRO40       0.0296
     33  CG        65.5460   -1.8730  -19.2010 C.3    40  PRO40       0.0237
     34  CD        65.7820   -2.2850  -17.7430 C.3    40  PRO40       0.0939
     35  N         57.9180    4.3500  -25.6070 N.3    65  ASN65      -0.1225
     36  CA        58.4270    4.1210  -24.2520 C.3    65  ASN65       0.1785
     37  C         57.3310    4.3030  -23.2010 C.2    65  ASN65       0.2597
     38  O         56.3950    5.0780  -23.3850 O.2    65  ASN65      -0.2718
     39  CB        59.6280    5.0280  -23.9420 C.3    65  ASN65       0.1169
     40  CG        60.9400    4.3370  -24.1430 C.2    65  ASN65       0.2627
     41  OD1       61.6190    3.9660  -23.1190 O.2    65  ASN65      -0.2716
     42  ND2       61.2720    4.0340  -25.3640 N.am   65  ASN65      -0.0877
     43  N         57.5380    3.6300  -22.0740 N.am   66  LEU66      -0.1966
     44  CA        56.6140    3.7320  -20.9480 C.3    66  LEU66       0.1728
     45  C         56.4810    5.1130  -20.3810 C.2    66  LEU66       0.2616
     46  O         55.3890    5.5340  -20.0170 O.2    66  LEU66      -0.2715
     47  CB        57.0250    2.7980  -19.8050 C.3    66  LEU66       0.0311
     48  CG        56.8540    1.3120  -20.0520 C.3    66  LEU66       0.0022
     49  CD1       57.6420    0.4680  -19.0560 C.3    66  LEU66       0.0001
     50  CD2       55.3990    0.9060  -20.0400 C.3    66  LEU66       0.0001
     51  N         57.5900    5.8160  -20.2440 N.am   67  ASP67      -0.1971
     52  CA        57.5910    6.9410  -19.3290 C.3    67  ASP67       0.1709
     53  C         58.7050    7.9330  -19.5820 C.2    67  ASP67       0.2293
     54  O         59.6560    7.6610  -20.3120 O.2    67  ASP67      -0.2864
     55  CB        57.5610    6.4660  -17.8590 C.3    67  ASP67       0.1436
     56  CG        58.4510    5.3110  -17.5350 C.2    67  ASP67       0.3671
     57  OD1       57.9500    4.5130  -16.7080 O.co2  67  ASP67      -0.2456
     58  OD2       59.6020    5.1650  -18.0330 O.co2  67  ASP67      -0.2456
     59  N         64.7500    9.9900  -19.9320 N.3    80  TYR80      -0.1241
     60  CA        64.6460    8.7090  -20.5880 C.3    80  TYR80       0.1605
     61  C         64.8070    8.7960  -22.1240 C.2    80  TYR80       0.2264
     62  O         65.1750    7.7820  -22.7630 O.2    80  TYR80      -0.2867
     63  CB        63.3400    8.0330  -20.1630 C.3    80  TYR80       0.0534
     64  CG        63.3650    7.5850  -18.6850 C.ar   80  TYR80      -0.0201
     65  CD1       62.1980    7.3430  -17.9960 C.ar   80  TYR80      -0.0009
     66  CD2       64.5650    7.3410  -18.0260 C.ar   80  TYR80      -0.0009
     67  CE1       62.1980    6.9410  -16.6990 C.ar   80  TYR80       0.0417
     68  CE2       64.5910    6.8870  -16.7190 C.ar   80  TYR80       0.0417
     69  CZ        63.4150    6.7090  -16.0490 C.ar   80  TYR80       0.1957
     70  OH        63.4300    6.2400  -14.7430 O.3    80  TYR80      -0.2866
     71  N         59.6820   -3.3650  -16.4710 N.3   132  GLY132     -0.1210
     72  CA        60.3010   -3.7330  -15.1880 C.3   132  GLY132      0.1956
     73  C         59.2620   -3.6840  -14.0910 C.2   132  GLY132      0.2612
     74  O         58.0880   -3.4280  -14.3450 O.2   132  GLY132     -0.2717
     75  N         59.7060   -3.8350  -12.8560 N.am  133  ILE133     -0.1965
     76  CA        58.8280   -3.7470  -11.6940 C.3   133  ILE133      0.1727
     77  C         59.4800   -2.8910  -10.6250 C.2   133  ILE133      0.2616
     78  O         60.6780   -3.0200  -10.3480 O.2   133  ILE133     -0.2715
     79  CB        58.4540   -5.1560  -11.1500 C.3   133  ILE133      0.0290
     80  CG1       57.2400   -5.0960  -10.2320 C.3   133  ILE133      0.0022
     81  CG2       59.6080   -5.8500  -10.5160 C.3   133  ILE133      0.0023
     82  CD1       56.6330   -6.4620   -9.9190 C.3   133  ILE133      0.0001
     83  N         58.6980   -2.0050  -10.0280 N.am  134  GLY134     -0.1955
     84  CA        59.1880   -1.2470   -8.8850 C.3   134  GLY134      0.1869
     85  C         59.3370   -2.1180   -7.6840 C.2   134  GLY134      0.2309
     86  O         58.7110   -3.1790   -7.6150 O.2   134  GLY134     -0.2863
     87  N         55.1410   -1.2040   -8.8350 N.3   138  HIS138     -0.1226
     88  CA        54.7300   -0.3550   -9.9320 C.3   138  HIS138      0.1752
     89  C         55.1450   -0.9290  -11.2660 C.2   138  HIS138      0.2596
     90  O         56.1230   -1.6550  -11.3840 O.2   138  HIS138     -0.2718
     91  CB        55.1590    1.1040   -9.7480 C.3   138  HIS138      0.0759
     92  CG        56.6080    1.4280   -9.9270 C.ar  138  HIS138      0.0818
     93  ND1       57.2180    2.3330   -9.0910 N.ar  138  HIS138     -0.2268
     94  CD2       57.5400    1.0580  -10.8370 C.ar  138  HIS138      0.1154
     95  CE1       58.4760    2.4870   -9.4720 C.ar  138  HIS138      0.1986
     96  NE2       58.6980    1.7250  -10.5320 N.ar  138  HIS138     -0.2212
     97  N         54.3720   -0.6150  -12.2930 N.am  139  ILE139     -0.1966
     98  CA        54.7140   -0.8970  -13.6860 C.3   139  ILE139      0.1727
     99  C         54.5500    0.4260  -14.4260 C.2   139  ILE139      0.2617
    100  O         53.6540    1.2120  -14.1130 O.2   139  ILE139     -0.2715
    101  CB        53.8920   -2.0610  -14.3030 C.3   139  ILE139      0.0290
    102  CG1       52.3900   -1.8310  -14.1780 C.3   139  ILE139      0.0022
    103  CG2       54.3250   -3.3530  -13.6590 C.3   139  ILE139      0.0023
    104  CD1       51.4940   -2.8270  -14.9760 C.3   139  ILE139      0.0001
    105  N         55.4500    0.7100  -15.3500 N.am  140  GLY140     -0.1940
    106  CA        55.6850    2.1080  -15.7000 C.3   140  GLY140      0.2014
    107  C         55.8900    2.9300  -14.4430 C.2   140  GLY140      0.2638
    108  O         56.5640    2.4650  -13.5440 O.2   140  GLY140     -0.2714
    109  N         55.2640    4.0980  -14.3340 N.am  141  PHE141     -0.1973
    110  CA        55.2180    4.8000  -13.0460 C.3   141  PHE141      0.1639
    111  C         53.8070    4.8450  -12.5010 C.2   141  PHE141      0.2290
    112  O         53.3820    5.8250  -11.8460 O.2   141  PHE141     -0.2864
    113  CB        55.8380    6.1970  -13.1430 C.3   141  PHE141      0.0560
    114  CG        57.3500    6.2290  -13.2120 C.ar  141  PHE141     -0.0200
    115  CD1       57.9590    7.1480  -14.0310 C.ar  141  PHE141     -0.0042
    116  CD2       58.1430    5.3940  -12.4310 C.ar  141  PHE141     -0.0042
    117  CE1       59.3420    7.2450  -14.1010 C.ar  141  PHE141     -0.0003
    118  CE2       59.5420    5.4960  -12.4780 C.ar  141  PHE141     -0.0003
    119  CZ        60.1250    6.4070  -13.3090 C.ar  141  PHE141     -0.0000
    120  N         65.6590    5.5000   -7.3750 N.3   165  ASN165     -0.1240
    121  CA        66.2260    6.0540   -8.6020 C.3   165  ASN165      0.1653
    122  C         67.3020    7.0910   -8.3030 C.2   165  ASN165      0.2266
    123  O         67.9890    7.5190   -9.2110 O.2   165  ASN165     -0.2867
    124  CB        65.1340    6.6060   -9.5430 C.3   165  ASN165      0.1155
    125  CG        64.2870    5.5110  -10.1700 C.2   165  ASN165      0.2627
    126  OD1       64.4480    4.3240   -9.8610 O.2   165  ASN165     -0.2716
    127  ND2       63.4310    5.8830  -11.0880 N.am  165  ASN165     -0.0877
    128  N         70.1580    6.8180   -7.1760 N.3   167  ARG167     -0.1231
    129  CA        71.4640    6.3400   -7.6140 C.3   167  ARG167      0.1694
    130  C         71.9080    6.8760   -8.9600 C.2   167  ARG167      0.2592
    131  O         73.0780    6.9200   -9.2920 O.2   167  ARG167     -0.2718
    132  CB        71.4780    4.7970   -7.6500 C.3   167  ARG167      0.0321
    133  CG        70.6060    4.1060   -8.7190 C.3   167  ARG167      0.0489
    134  CD        70.1960    2.5910   -8.3330 C.3   167  ARG167      0.2205
    135  NE        69.6910    1.7550   -9.4730 N.pl3 167  ARG167     -0.0865
    136  CZ        68.4330    1.2960   -9.6840 C.cat 167  ARG167      0.5346
    137  NH1       67.4200    1.5130   -8.8200 N.pl3 167  ARG167      0.1354
    138  NH2       68.1640    0.5660  -10.7930 N.pl3 167  ARG167      0.1354
    139  N         70.9490    7.3000   -9.7630 N.am  168  TYR168     -0.1976
    140  CA        71.2750    7.8200  -11.0890 C.3   168  TYR168      0.1639
    141  C         71.4800    9.3040  -11.1720 C.2   168  TYR168      0.2290
    142  O         71.8900    9.8010  -12.2230 O.2   168  TYR168     -0.2864
    143  CB        70.1540    7.3940  -12.0540 C.3   168  TYR168      0.0560
    144  CG        70.0870    5.8810  -12.2080 C.ar  168  TYR168     -0.0198
    145  CD1       68.9490    5.1500  -11.8520 C.ar  168  TYR168     -0.0009
    146  CD2       71.1900    5.1710  -12.6370 C.ar  168  TYR168     -0.0009
    147  CE1       68.9060    3.7880  -11.9770 C.ar  168  TYR168      0.0417
    148  CE2       71.1770    3.8050  -12.7750 C.ar  168  TYR168      0.0417
    149  CZ        70.0230    3.0990  -12.4530 C.ar  168  TYR168      0.1957
    150  OH        70.0280    1.7380  -12.5830 O.3   168  TYR168     -0.2866
    151  N         64.1400   -6.6970   -5.6300 N.3   202  LYS202     -0.1245
    152  CA        62.8260   -7.0250   -6.1540 C.3   202  LYS202      0.1561
    153  C         62.2210   -8.2960   -5.5690 C.2   202  LYS202      0.2260
    154  O         61.1300   -8.6940   -5.9890 O.2   202  LYS202     -0.2867
    155  CB        62.9030   -7.1400   -7.6860 C.3   202  LYS202      0.0271
    156  CG        63.5320   -5.9460   -8.3800 C.3   202  LYS202      0.0035
    157  CD        62.8130   -4.6370   -8.0850 C.3   202  LYS202      0.0206
    158  CE        63.4570   -3.4530   -8.8070 C.3   202  LYS202      0.1093
    159  NZ        63.4010   -3.6210  -10.3090 N.3   202  LYS202     -0.1314
@<TRIPOS>BOND
     1    35    36    1
     2    42    40   am
     3    36    39    1
     4    36    37    1
     5    40    39    1
     6    40    41    2
     7    38    37    2
     8    37    43   am
     9    62    61    2
    10    61    60    1
    11     1     2    1
    12    43    44    1
    13     4     3    2
    14    31    30    2
    15    44    45    1
    16    44    47    1
    17     2     3    1
    18     2     5    1
    19    60    63    1
    20    60    59    1
    21     3     6   am
    22    12    10    1
    23    45    51   am
    24    45    46    2
    25    54    53    2
    26    51    52    1
    27    63    64    1
    28    48    50    1
    29    48    47    1
    30    48    49    1
    31    32    29    1
    32    32    33    1
    33    30    29    1
    34    53    52    1
    35     6     7    1
    36    52    55    1
    37    29    28    1
    38    33    34    1
    39     7    10    1
    40     7     8    1
    41    10    11    1
    42    64    66   ar
    43    64    65   ar
    44    58    56   ar
    45    66    68   ar
    46    65    67   ar
    47    28    34    1
    48    28    23   am
    49    55    56    1
    50     8     9    2
    51     8    13   am
    52    56    57   ar
    53    24    23    2
    54    13    14    1
    55    23    22    1
    56    16    15    2
    57    68    69   ar
    58    67    69   ar
    59    71    72    1
    60    69    70    1
    61    20    19    2
    62    15    14    1
    63    15    17   am
    64   106   105    1
    65   106   107    1
    66    22    21    1
    67    22    25    1
    68   105    99   am
    69    19    21   am
    70    19    18    1
    71    72    73    1
    72    27    25    1
    73    25    26    1
    74   104   102    1
    75    17    18    1
    76   107   109   am
    77   107   108    2
    78    99   100    2
    79    99    98    1
    80    74    73    2
    81   109   110    1
    82   101   102    1
    83   101    98    1
    84   101   103    1
    85   117   115   ar
    86   117   119   ar
    87    73    75   am
    88   115   114   ar
    89    98    97    1
    90   119   118   ar
    91   114   113    1
    92   114   116   ar
    93   113   110    1
    94   110   111    1
    95    75    76    1
    96   148   146   ar
    97   148   149   ar
    98   146   144   ar
    99   150   149    1
   100   111   112    2
   101   118   116   ar
   102   149   147   ar
   103    97    89   am
   104   142   141    2
   105   144   143    1
   106   144   145   ar
   107   143   140    1
   108   147   145   ar
   109    76    79    1
   110    76    77    1
   111    90    89    2
   112    89    88    1
   113   141   140    1
   114    79    81    1
   115    79    80    1
   116   140   139    1
   117   127   125   am
   118    94    96   ar
   119    94    92   ar
   120   138   136    1
   121    77    78    2
   122    77    83   am
   123    96    95   ar
   124   159   158    1
   125    80    82    1
   126   125   126    2
   127   125   124    1
   128    83    84    1
   129    88    91    1
   130    88    87    1
   131    92    91    1
   132    92    93   ar
   133   139   130   am
   134   136   135    2
   135   136   137    1
   136   124   121    1
   137   135   134    1
   138    95    93   ar
   139   131   130    2
   140   123   122    2
   141   130   129    1
   142    84    85    1
   143   158   157    1
   144   133   134    1
   145   133   132    1
   146   121   122    1
   147   121   120    1
   148   156   157    1
   149   156   155    1
   150   155   152    1
   151    85    86    2
   152   132   129    1
   153   129   128    1
   154   152   151    1
   155   152   153    1
   156   154   153    2
