@<TRIPOS>MOLECULE
tmp/2bkzC00.pdb
 174 166 0 0 0
SMALL
GASTEIGER

@<TRIPOS>ATOM
      1  N        -31.1230  166.0060   90.4530 N.3    11  ILE11      -0.1231
      2  CA       -32.2530  165.7600   89.5700 C.3    11  ILE11       0.1692
      3  C        -31.8800  165.9500   88.1020 C.2    11  ILE11       0.2592
      4  O        -32.6760  165.6580   87.2110 O.2    11  ILE11      -0.2718
      5  CB       -33.4730  166.6630   89.9240 C.3    11  ILE11       0.0266
      6  CG1      -33.1210  168.1470   89.7870 C.3    11  ILE11       0.0019
      7  CG2      -33.9160  166.3920   91.3530 C.3    11  ILE11       0.0020
      8  CD1      -34.3060  169.0670   90.0330 C.3    11  ILE11       0.0001
      9  N        -30.6630  166.4240   87.8530 N.am   12  GLY12      -0.1957
     10  CA       -30.2230  166.6250   86.4850 C.3    12  GLY12       0.1869
     11  C        -28.7380  166.9180   86.3990 C.2    12  GLY12       0.2309
     12  O        -28.1350  167.3560   87.3760 O.2    12  GLY12      -0.2863
     13  N        -22.9920  172.0040   81.8560 N.3    16  TYR16      -0.1241
     14  CA       -23.1010  173.1680   82.7300 C.3    16  TYR16       0.1605
     15  C        -22.6790  172.8170   84.1520 C.2    16  TYR16       0.2264
     16  O        -22.0090  173.5980   84.8290 O.2    16  TYR16      -0.2867
     17  CB       -24.5450  173.6860   82.7300 C.3    16  TYR16       0.0534
     18  CG       -25.5850  172.6610   83.1520 C.ar   16  TYR16      -0.0201
     19  CD1      -25.7360  172.2880   84.4900 C.ar   16  TYR16      -0.0009
     20  CD2      -26.4220  172.0680   82.2090 C.ar   16  TYR16      -0.0009
     21  CE1      -26.6920  171.3560   84.8730 C.ar   16  TYR16       0.0417
     22  CE2      -27.3810  171.1380   82.5830 C.ar   16  TYR16       0.0417
     23  CZ       -27.5120  170.7870   83.9140 C.ar   16  TYR16       0.1957
     24  OH       -28.4790  169.8770   84.2780 O.3    16  TYR16      -0.2866
     25  N        -27.9280  170.0110   88.5770 N.3    19  VAL19      -0.1245
     26  CA       -29.0980  170.6610   89.1530 C.3    19  VAL19       0.1561
     27  C        -29.6080  169.7920   90.3050 C.2    19  VAL19       0.2260
     28  O        -30.0010  168.6430   90.1030 O.2    19  VAL19      -0.2867
     29  CB       -30.2310  170.8260   88.1230 C.3    19  VAL19       0.0252
     30  CG1      -31.4080  171.5220   88.7710 C.3    19  VAL19       0.0019
     31  CG2      -29.7410  171.6250   86.9170 C.3    19  VAL19       0.0019
     32  N        -34.4860  174.8190   93.4550 N.3    32  ALA32      -0.1245
     33  CA       -33.6350  174.0730   92.5320 C.3    32  ALA32       0.1562
     34  C        -32.2890  174.7820   92.4710 C.2    32  ALA32       0.2260
     35  O        -32.2260  175.9850   92.2230 O.2    32  ALA32      -0.2867
     36  CB       -34.2610  174.0250   91.1500 C.3    32  ALA32       0.0290
     37  N        -28.6800  174.9860   90.5980 N.3    34  LYS34      -0.1245
     38  CA       -27.8730  174.5930   89.4490 C.3    34  LYS34       0.1561
     39  C        -26.4330  174.9360   89.8100 C.2    34  LYS34       0.2260
     40  O        -26.0580  176.1060   89.8500 O.2    34  LYS34      -0.2867
     41  CB       -28.2760  175.3410   88.1740 C.3    34  LYS34       0.0271
     42  CG       -27.3440  175.0170   86.9960 C.3    34  LYS34       0.0035
     43  CD       -28.0550  174.9060   85.6480 C.3    34  LYS34       0.0206
     44  CE       -28.5280  176.2430   85.1130 C.3    34  LYS34       0.1093
     45  NZ       -29.0000  176.1370   83.6910 N.3    34  LYS34      -0.1314
     46  N        -27.6140  183.4070   81.0260 N.3    52  GLU52      -0.1245
     47  CA       -28.7940  182.9300   81.7230 C.3    52  GLU52       0.1567
     48  C        -29.1490  183.8440   82.8990 C.2    52  GLU52       0.2260
     49  O        -30.2940  184.2690   83.0380 O.2    52  GLU52      -0.2867
     50  CB       -28.5960  181.5010   82.2250 C.3    52  GLU52       0.0388
     51  CG       -29.7520  181.0280   83.0880 C.3    52  GLU52       0.1160
     52  CD       -29.8420  179.5270   83.2180 C.2    52  GLU52       0.3649
     53  OE1      -28.8730  178.9000   83.7000 O.co2  52  GLU52      -0.2457
     54  OE2      -30.8940  178.9730   82.8390 O.co2  52  GLU52      -0.2457
     55  N        -39.2030  180.2030   84.0670 N.3    65  VAL65      -0.1245
     56  CA       -38.6400  179.7710   85.3410 C.3    65  VAL65       0.1561
     57  C        -38.0460  180.9630   86.0750 C.2    65  VAL65       0.2260
     58  O        -37.3340  181.7820   85.4890 O.2    65  VAL65      -0.2867
     59  CB       -37.5710  178.6710   85.1600 C.3    65  VAL65       0.0252
     60  CG1      -36.2910  179.2490   84.5320 C.3    65  VAL65       0.0019
     61  CG2      -37.2840  178.0140   86.5110 C.3    65  VAL65       0.0019
     62  N        -33.2280  178.5720   91.6420 N.3    81  PHE81      -0.1227
     63  CA       -34.4880  178.7550   90.9220 C.3    81  PHE81       0.1736
     64  C        -35.6770  178.1820   91.6860 C.2    81  PHE81       0.2595
     65  O        -35.5220  177.3550   92.5860 O.2    81  PHE81      -0.2718
     66  CB       -34.4890  178.0060   89.5810 C.3    81  PHE81       0.0547
     67  CG       -33.3580  178.3370   88.6500 C.ar   81  PHE81      -0.0202
     68  CD1      -32.1180  177.7310   88.7950 C.ar   81  PHE81      -0.0042
     69  CD2      -33.5790  179.1640   87.5500 C.ar   81  PHE81      -0.0042
     70  CE1      -31.1190  177.9350   87.8500 C.ar   81  PHE81      -0.0003
     71  CE2      -32.5960  179.3730   86.6080 C.ar   81  PHE81      -0.0003
     72  CZ       -31.3620  178.7570   86.7520 C.ar   81  PHE81      -0.0000
     73  N        -36.8750  178.5920   91.2930 N.am   82  GLU82      -0.1965
     74  CA       -38.0700  178.0320   91.9020 C.3    82  GLU82       0.1733
     75  C        -37.9920  176.5570   91.5010 C.2    82  GLU82       0.2616
     76  O        -37.3250  176.2160   90.5200 O.2    82  GLU82      -0.2715
     77  CB       -39.3240  178.6500   91.2920 C.3    82  GLU82       0.0429
     78  CG       -39.2990  178.7050   89.7750 C.3    82  GLU82       0.1163
     79  CD       -40.6470  179.0490   89.1810 C.2    82  GLU82       0.3649
     80  OE1      -40.6900  179.7640   88.1560 O.co2  82  GLU82      -0.2457
     81  OE2      -41.6640  178.5890   89.7380 O.co2  82  GLU82      -0.2457
     82  N        -38.6600  175.6760   92.2350 N.am   83  PHE83      -0.1960
     83  CA       -38.6070  174.2630   91.8930 C.3    83  PHE83       0.1771
     84  C        -39.8300  173.7590   91.1280 C.2    83  PHE83       0.2619
     85  O        -40.9670  174.0930   91.4520 O.2    83  PHE83      -0.2715
     86  CB       -38.3960  173.4260   93.1570 C.3    83  PHE83       0.0574
     87  CG       -38.5290  171.9440   92.9340 C.ar   83  PHE83      -0.0200
     88  CD1      -39.7700  171.3280   92.9820 C.ar   83  PHE83      -0.0042
     89  CD2      -37.4140  171.1660   92.6790 C.ar   83  PHE83      -0.0042
     90  CE1      -39.8940  169.9660   92.7820 C.ar   83  PHE83      -0.0003
     91  CE2      -37.5340  169.8020   92.4760 C.ar   83  PHE83      -0.0003
     92  CZ       -38.7740  169.2030   92.5280 C.ar   83  PHE83      -0.0000
     93  N        -39.5790  172.9750   90.0860 N.am   84  LEU84      -0.1963
     94  CA       -40.6500  172.3850   89.2980 C.3    84  LEU84       0.1728
     95  C        -40.3780  170.8900   89.2160 C.2    84  LEU84       0.2616
     96  O        -39.2340  170.4600   89.1020 O.2    84  LEU84      -0.2715
     97  CB       -40.7380  173.0230   87.9140 C.3    84  LEU84       0.0311
     98  CG       -41.5930  174.3000   87.9300 C.3    84  LEU84       0.0022
     99  CD1      -40.7160  175.5330   88.1120 C.3    84  LEU84       0.0001
    100  CD2      -42.3680  174.4030   86.6360 C.3    84  LEU84       0.0001
    101  N        -41.4430  170.1040   89.2850 N.am   85  HIS85      -0.1959
    102  CA       -41.3420  168.6510   89.3080 C.3    85  HIS85       0.1787
    103  C        -40.7610  167.8960   88.1260 C.2    85  HIS85       0.2620
    104  O        -40.1010  166.8800   88.3200 O.2    85  HIS85      -0.2715
    105  CB       -42.7170  168.0550   89.6250 C.3    85  HIS85       0.0785
    106  CG       -43.4770  168.8180   90.6650 C.ar   85  HIS85       0.0821
    107  ND1      -44.1690  169.9770   90.3810 N.ar   85  HIS85      -0.2267
    108  CD2      -43.6230  168.6090   91.9960 C.ar   85  HIS85       0.1154
    109  CE1      -44.7090  170.4480   91.4910 C.ar   85  HIS85       0.1986
    110  NE2      -44.3920  169.6380   92.4850 N.ar   85  HIS85      -0.2212
    111  N        -40.9610  168.3800   86.9080 N.am   86  GLN86      -0.1963
    112  CA       -40.4870  167.6000   85.7750 C.3    86  GLN86       0.1733
    113  C        -40.4320  168.3780   84.4670 C.2    86  GLN86       0.2616
    114  O        -41.0450  169.4420   84.3500 O.2    86  GLN86      -0.2715
    115  CB       -41.4420  166.4150   85.6500 C.3    86  GLN86       0.0408
    116  CG       -41.1900  165.4130   84.5710 C.3    86  GLN86       0.0908
    117  CD       -42.2620  164.3430   84.5950 C.2    86  GLN86       0.2608
    118  OE1      -43.4320  164.6170   84.3280 O.2    86  GLN86      -0.2717
    119  NE2      -41.8730  163.1220   84.9410 N.am   86  GLN86      -0.0878
    120  N        -39.6940  167.8490   83.4880 N.am   87  ASP87      -0.1971
    121  CA       -39.6070  168.4970   82.1780 C.3    87  ASP87       0.1709
    122  C        -40.6010  167.8570   81.1950 C.2    87  ASP87       0.2293
    123  O        -41.0420  166.7320   81.3980 O.2    87  ASP87      -0.2864
    124  CB       -38.1750  168.4420   81.6270 C.3    87  ASP87       0.1436
    125  CG       -37.7200  167.0380   81.2920 C.2    87  ASP87       0.3671
    126  OD1      -38.3460  166.3990   80.4170 O.co2  87  ASP87      -0.2456
    127  OD2      -36.7260  166.5800   81.8960 O.co2  87  ASP87      -0.2456
    128  N        -39.7560  164.1670   79.6900 N.3    90  LYS90      -0.1245
    129  CA       -40.0520  163.0640   80.5910 C.3    90  LYS90       0.1561
    130  C        -41.5650  162.8050   80.6190 C.2    90  LYS90       0.2260
    131  O        -42.0140  161.6580   80.6030 O.2    90  LYS90      -0.2867
    132  CB       -39.5360  163.4200   81.9840 C.3    90  LYS90       0.0271
    133  CG       -39.3030  162.2610   82.9190 C.3    90  LYS90       0.0035
    134  CD       -38.7450  162.7800   84.2430 C.3    90  LYS90       0.0206
    135  CE       -38.6210  161.6860   85.3010 C.3    90  LYS90       0.1093
    136  NZ       -38.1530  162.2300   86.6190 N.3    90  LYS90      -0.1314
    137  N        -37.0590  169.0020   76.8540 N.3   132  GLN132     -0.1231
    138  CA       -36.3570  168.9360   78.1320 C.3   132  GLN132      0.1698
    139  C        -36.0120  170.2850   78.7760 C.2   132  GLN132      0.2592
    140  O        -35.5350  170.3290   79.9090 O.2   132  GLN132     -0.2718
    141  CB       -35.0990  168.0740   78.0070 C.3   132  GLN132      0.0381
    142  CG       -34.1140  168.5350   76.9640 C.3   132  GLN132      0.0905
    143  CD       -32.9580  167.5690   76.8130 C.2   132  GLN132      0.2608
    144  OE1      -32.2230  167.3110   77.7670 O.2   132  GLN132     -0.2717
    145  NE2      -32.7910  167.0250   75.6110 N.am  132  GLN132     -0.0878
    146  N        -36.2530  171.3800   78.0620 N.am  133  ASN133     -0.1974
    147  CA       -35.9860  172.7050   78.6110 C.3   133  ASN133      0.1688
    148  C        -37.2940  173.3860   78.9980 C.2   133  ASN133      0.2292
    149  O        -37.3170  174.5850   79.2680 O.2   133  ASN133     -0.2864
    150  CB       -35.2400  173.5900   77.6060 C.3   133  ASN133      0.1181
    151  CG       -33.7960  173.1500   77.3850 C.2   133  ASN133      0.2629
    152  OD1      -33.1940  172.4700   78.2250 O.2   133  ASN133     -0.2716
    153  ND2      -33.2290  173.5560   76.2590 N.am  133  ASN133     -0.0877
    154  N        -40.3620  173.1970   81.7170 N.3   135  LEU135     -0.1245
    155  CA       -40.7380  172.6190   83.0040 C.3   135  LEU135      0.1561
    156  C        -42.2220  172.7320   83.3580 C.2   135  LEU135      0.2260
    157  O        -42.8870  173.7210   83.0380 O.2   135  LEU135     -0.2867
    158  CB       -39.8840  173.2500   84.1050 C.3   135  LEU135      0.0270
    159  CG       -38.3860  173.2880   83.7840 C.3   135  LEU135      0.0019
    160  CD1      -37.6100  173.8720   84.9560 C.3   135  LEU135      0.0001
    161  CD2      -37.8980  171.8830   83.4750 C.3   135  LEU135      0.0001
    162  N        -37.3570  177.2870   80.4280 N.3   145  ALA145     -0.1231
    163  CA       -36.1920  177.2000   81.2930 C.3   145  ALA145      0.1694
    164  C        -34.9280  177.0310   80.4690 C.2   145  ALA145      0.2592
    165  O        -34.9800  176.9080   79.2450 O.2   145  ALA145     -0.2718
    166  CB       -36.3440  176.0490   82.2780 C.3   145  ALA145      0.0304
    167  N        -33.7940  177.0370   81.1600 N.am  146  ASP146     -0.1974
    168  CA       -32.4870  176.8960   80.5400 C.3   146  ASP146      0.1709
    169  C        -32.2110  177.9810   79.5010 C.2   146  ASP146      0.2293
    170  O        -32.3260  177.7500   78.2930 O.2   146  ASP146     -0.2864
    171  CB       -32.3500  175.5240   79.8900 C.3   146  ASP146      0.1436
    172  CG       -30.9110  175.0590   79.8470 C.2   146  ASP146      0.3671
    173  OD1      -30.0350  175.8740   79.4650 O.co2 146  ASP146     -0.2456
    174  OD2      -30.6560  173.8850   80.2010 O.co2 146  ASP146     -0.2456
@<TRIPOS>BOND
     1   145   143   am
     2   153   151   am
     3   143   142    1
     4   143   144    2
     5   137   138    1
     6   142   141    1
     7   151   150    1
     8   151   152    2
     9   150   147    1
    10   141   138    1
    11   146   147    1
    12   146   139   am
    13   138   139    1
    14   170   169    2
    15   147   148    1
    16   139   140    2
    17   148   149    2
    18   165   164    2
    19   173   172   ar
    20   169   168    1
    21   128   129    1
    22   172   171    1
    23   172   174   ar
    24   171   168    1
    25   126   125   ar
    26   162   163    1
    27   164   167   am
    28   164   163    1
    29   168   167    1
    30   129   130    1
    31   129   132    1
    32   131   130    2
    33    46    47    1
    34   122   123    2
    35   122   121    1
    36   125   124    1
    37   125   127   ar
    38   163   166    1
    39   124   121    1
    40   154   155    1
    41    47    50    1
    42    47    48    1
    43    13    14    1
    44   132   133    1
    45   121   120    1
    46    20    22   ar
    47    20    18   ar
    48    50    51    1
    49    22    23   ar
    50    17    14    1
    51    17    18    1
    52    14    15    1
    53    54    52   ar
    54    48    49    2
    55   133   134    1
    56   155   156    1
    57   155   158    1
    58   157   156    2
    59    51    52    1
    60    18    19   ar
    61    52    53   ar
    62   161   159    1
    63   120   113   am
    64    45    44    1
    65   159   158    1
    66   159   160    1
    67    23    24    1
    68    23    21   ar
    69    55    56    1
    70    15    16    2
    71   134   135    1
    72   118   117    2
    73   114   113    2
    74   113   112    1
    75    19    21   ar
    76    60    59    1
    77   116   117    1
    78   116   115    1
    79   117   119   am
    80    44    43    1
    81    59    56    1
    82    59    61    1
    83   135   136    1
    84    56    57    1
    85    58    57    2
    86    43    42    1
    87   115   112    1
    88   112   111    1
    89    11    10    1
    90    11    12    2
    91    10     9    1
    92    71    72   ar
    93    71    69   ar
    94   100    98    1
    95    72    70   ar
    96   111   103   am
    97    31    29    1
    98    42    41    1
    99     4     3    2
   100    69    67   ar
   101    70    68   ar
   102     9     3   am
   103    97    98    1
   104    97    94    1
   105    98    99    1
   106     3     2    1
   107    29    30    1
   108    29    26    1
   109   103   104    2
   110   103   102    1
   111    80    79   ar
   112    41    38    1
   113    25    26    1
   114    67    68   ar
   115    67    66    1
   116    96    95    2
   117    26    27    1
   118    79    81   ar
   119    79    78    1
   120    95   101   am
   121    95    94    1
   122   101   102    1
   123    94    93    1
   124   102   105    1
   125    38    39    1
   126    38    37    1
   127     2     5    1
   128     2     1    1
   129    66    63    1
   130   105   106    1
   131    78    77    1
   132     6     5    1
   133     6     8    1
   134    39    40    2
   135     5     7    1
   136    93    84   am
   137    28    27    2
   138   107   106   ar
   139   107   109   ar
   140    76    75    2
   141   106   108   ar
   142    63    62    1
   143    63    64    1
   144    84    85    2
   145    84    83    1
   146    36    33    1
   147    77    74    1
   148    73    64   am
   149    73    74    1
   150   109   110   ar
   151    75    74    1
   152    75    82   am
   153    64    65    2
   154    83    82    1
   155    83    86    1
   156   108   110   ar
   157    35    34    2
   158    34    33    1
   159    91    92   ar
   160    91    89   ar
   161    92    90   ar
   162    33    32    1
   163    89    87   ar
   164    90    88   ar
   165    87    88   ar
   166    87    86    1
