@<TRIPOS>MOLECULE
tmp/2blbA02.pdb
 92 89 0 0 0
SMALL
GASTEIGER

@<TRIPOS>ATOM
      1  N         35.7620   -0.5440   15.9300 N.3    44  LEU44      -0.1245
      2  CA        35.9440   -0.4650   14.4900 C.3    44  LEU44       0.1561
      3  C         37.3820   -0.7440   14.0400 C.2    44  LEU44       0.2260
      4  O         38.3190   -0.1180   14.5140 O.2    44  LEU44      -0.2867
      5  CB        35.5060    0.9090   13.9760 C.3    44  LEU44       0.0270
      6  CG        34.1080    1.4390   14.3210 C.3    44  LEU44       0.0019
      7  CD1       33.9360    2.7290   13.5680 C.3    44  LEU44       0.0001
      8  CD2       33.0070    0.4740   13.9480 C.3    44  LEU44       0.0001
      9  N         31.9350    8.8140    9.1450 N.3    53  MET53      -0.1245
     10  CA        31.3100    9.2820   10.3660 C.3    53  MET53       0.1570
     11  C         30.2580   10.3440   10.0230 C.2    53  MET53       0.2261
     12  O         29.1260   10.3240   10.5440 O.2    53  MET53      -0.2867
     13  CB        32.3910    9.8830   11.2590 C.3    53  MET53       0.0387
     14  CG        31.8840   10.6210   12.4710 C.3    53  MET53       0.0595
     15  SD        31.5490    9.4650   13.7930 S.3    53  MET53      -0.1393
     16  CE        33.2880    8.6970   14.0370 C.3    53  MET53       0.0692
     17  N         27.4790    8.6200    7.7020 N.3    56  PHE56      -0.1227
     18  CA        26.5910    7.8900    8.5740 C.3    56  PHE56       0.1736
     19  C         25.6690    8.8570    9.3070 C.2    56  PHE56       0.2596
     20  O         24.4410    8.7190    9.2770 O.2    56  PHE56      -0.2718
     21  CB        27.3860    7.1040    9.6040 C.3    56  PHE56       0.0547
     22  CG        26.5230    6.4700   10.6440 C.ar   56  PHE56      -0.0202
     23  CD1       25.8180    5.2990   10.3660 C.ar   56  PHE56      -0.0042
     24  CD2       26.3460    7.0850   11.8760 C.ar   56  PHE56      -0.0042
     25  CE1       24.9500    4.7490   11.2940 C.ar   56  PHE56      -0.0003
     26  CE2       25.4770    6.5430   12.8130 C.ar   56  PHE56      -0.0003
     27  CZ        24.7760    5.3690   12.5190 C.ar   56  PHE56      -0.0000
     28  N         26.2830    9.8370    9.9660 N.am   57  SER57      -0.1952
     29  CA        25.5350   10.8360   10.7180 C.3    57  SER57       0.1924
     30  C         24.4590   11.5360    9.9060 C.2    57  SER57       0.2314
     31  O         23.3230   11.6500   10.3370 O.2    57  SER57      -0.2863
     32  CB        26.4700   11.8850   11.2790 C.3    57  SER57       0.2116
     33  OG        25.7410   12.7200   12.1600 O.3    57  SER57      -0.2180
     34  N         29.8980   -0.4480   22.4640 N.3   100  SER100     -0.1202
     35  CA        31.0740    0.0160   21.7370 C.3   100  SER100      0.2020
     36  C         31.0500    1.5070   21.4470 C.2   100  SER100      0.2619
     37  O         31.8460    2.0040   20.6570 O.2   100  SER100     -0.2717
     38  CB        31.2490   -0.7610   20.4240 C.3   100  SER100      0.2103
     39  OG        30.2390   -0.4420   19.4850 O.3   100  SER100     -0.2182
     40  N         30.1450    2.2240   22.0950 N.am  101  ILE101     -0.1966
     41  CA        30.0280    3.6570   21.8880 C.3   101  ILE101      0.1712
     42  C         30.3480    4.4590   23.1380 C.2   101  ILE101      0.2458
     43  O         29.8530    4.1590   24.2350 O.2   101  ILE101     -0.2730
     44  CB        28.6100    4.0230   21.4700 C.3   101  ILE101      0.0289
     45  CG1       28.2230    3.1900   20.2550 C.3   101  ILE101      0.0022
     46  CG2       28.5020    5.5410   21.2190 C.3   101  ILE101      0.0023
     47  CD1       26.7650    3.2080   20.0070 C.3   101  ILE101      0.0001
     48  N         31.1870    5.4930   22.9810 N.am  102  PRO102     -0.2727
     49  CA        31.5730    6.3580   24.0950 C.3   102  PRO102      0.1402
     50  C         30.3180    7.0500   24.6260 C.2   102  PRO102      0.2269
     51  O         29.7560    7.9380   23.9710 O.2   102  PRO102     -0.2865
     52  CB        32.5320    7.3500   23.4440 C.3   102  PRO102      0.0296
     53  CG        33.0840    6.5920   22.2830 C.3   102  PRO102      0.0237
     54  CD        31.8890    5.8840   21.7440 C.3   102  PRO102      0.0939
     55  N         28.1350    9.9550   23.6100 N.3   105  TYR105     -0.1241
     56  CA        27.4030   10.0480   22.3280 C.3   105  TYR105      0.1605
     57  C         26.1650    9.1610   22.3310 C.2   105  TYR105      0.2264
     58  O         25.6250    8.8310   21.2880 O.2   105  TYR105     -0.2867
     59  CB        28.2990    9.6280   21.1470 C.3   105  TYR105      0.0534
     60  CG        29.7450   10.1230   21.2310 C.ar  105  TYR105     -0.0201
     61  CD1       30.0380   11.4520   21.5720 C.ar  105  TYR105     -0.0009
     62  CD2       30.8220    9.2590   20.9710 C.ar  105  TYR105     -0.0009
     63  CE1       31.3650   11.9140   21.6590 C.ar  105  TYR105      0.0417
     64  CE2       32.1540    9.7100   21.0530 C.ar  105  TYR105      0.0417
     65  CZ        32.4150   11.0390   21.4010 C.ar  105  TYR105      0.1957
     66  OH        33.7180   11.4900   21.5120 O.3   105  TYR105     -0.2866
     67  N         22.0770    8.4090   20.4990 N.3   108  LEU108     -0.1231
     68  CA        22.3850    9.1480   19.2900 C.3   108  LEU108      0.1678
     69  C         21.2860   10.1860   19.1570 C.2   108  LEU108      0.2434
     70  O         20.0930    9.8540   19.1830 O.2   108  LEU108     -0.2733
     71  CB        22.3850    8.2170   18.0810 C.3   108  LEU108      0.0284
     72  CG        23.5600    7.2360   18.0000 C.3   108  LEU108      0.0019
     73  CD1       23.4490    6.3140   16.8060 C.3   108  LEU108      0.0001
     74  CD2       24.8230    8.0590   17.8800 C.3   108  LEU108      0.0001
     75  N         21.6810   11.4640   19.0290 N.am  109  PRO109     -0.2729
     76  CA        20.8340   12.6440   18.8960 C.3   109  PRO109      0.1401
     77  C         19.9320   12.6540   17.6930 C.2   109  PRO109      0.2269
     78  O         20.2770   12.1550   16.6170 O.2   109  PRO109     -0.2865
     79  CB        21.8400   13.7720   18.8380 C.3   109  PRO109      0.0296
     80  CG        22.9370   13.1470   18.0840 C.3   109  PRO109      0.0237
     81  CD        23.0830   11.8490   18.8360 C.3   109  PRO109      0.0939
     82  N         17.6020   11.0130   17.0400 N.3   111  ARG111     -0.1245
     83  CA        17.2870    9.6990   16.5380 C.3   111  ARG111      0.1563
     84  C         16.7760    8.8090   17.6360 C.2   111  ARG111      0.2260
     85  O         17.3910    8.6880   18.6970 O.2   111  ARG111     -0.2867
     86  CB        18.5180    9.0900   15.8790 C.3   111  ARG111      0.0307
     87  CG        18.8050    9.7070   14.5270 C.3   111  ARG111      0.0489
     88  CD        20.2120    9.4540   14.1000 C.3   111  ARG111      0.2205
     89  NE        21.1190   10.0760   15.0360 N.pl3 111  ARG111     -0.0865
     90  CZ        22.4310   10.0970   14.8810 C.cat 111  ARG111      0.5346
     91  NH1       22.9700    9.5280   13.8210 N.pl3 111  ARG111      0.1354
     92  NH2       23.2030   10.6830   15.7850 N.pl3 111  ARG111      0.1354
@<TRIPOS>BOND
     1    17    18    1
     2    18    19    1
     3    18    21    1
     4     9    10    1
     5    20    19    2
     6    19    28   am
     7    21    22    1
     8    30    31    2
     9    30    29    1
    10    28    29    1
    11    11    10    1
    12    11    12    2
    13    23    22   ar
    14    23    25   ar
    15    10    13    1
    16    22    24   ar
    17    29    32    1
    18    13    14    1
    19    32    33    1
    20    25    27   ar
    21    24    26   ar
    22    14    15    1
    23    27    26   ar
    24     7     6    1
    25    15    16    1
    26    91    90    1
    27     8     6    1
    28     5     6    1
    29     5     2    1
    30     3     2    1
    31     3     4    2
    32    88    87    1
    33    88    89    1
    34     2     1    1
    35    87    86    1
    36    90    89    2
    37    90    92    1
    38    86    83    1
    39    83    82    1
    40    83    84    1
    41    78    77    2
    42    73    72    1
    43    84    85    2
    44    77    76    1
    45    74    72    1
    46    72    71    1
    47    71    68    1
    48    80    81    1
    49    80    79    1
    50    81    75    1
    51    79    76    1
    52    76    75    1
    53    75    69   am
    54    69    70    2
    55    69    68    1
    56    68    67    1
    57    39    38    1
    58    47    45    1
    59    45    44    1
    60    38    35    1
    61    37    36    2
    62    62    64   ar
    63    62    60   ar
    64    64    65   ar
    65    59    60    1
    66    59    56    1
    67    46    44    1
    68    60    61   ar
    69    58    57    2
    70    65    66    1
    71    65    63   ar
    72    36    35    1
    73    36    40   am
    74    44    41    1
    75    61    63   ar
    76    35    34    1
    77    54    53    1
    78    54    48    1
    79    41    40    1
    80    41    42    1
    81    53    52    1
    82    56    57    1
    83    56    55    1
    84    48    42   am
    85    48    49    1
    86    42    43    2
    87    52    49    1
    88    51    50    2
    89    49    50    1
