@<TRIPOS>MOLECULE
tmp/2blbA01.pdb
 143 136 0 0 0
SMALL
GASTEIGER

@<TRIPOS>ATOM
      1  N         22.5120    0.0350    7.4210 N.3    12  ILE12      -0.1231
      2  CA        23.6960    0.8120    7.0860 C.3    12  ILE12       0.1692
      3  C         24.9070    0.2970    7.8440 C.2    12  ILE12       0.2592
      4  O         24.8280    0.0270    9.0370 O.2    12  ILE12      -0.2718
      5  CB        23.4760    2.2700    7.4070 C.3    12  ILE12       0.0266
      6  CG1       24.7310    3.0600    7.0130 C.3    12  ILE12       0.0019
      7  CG2       23.0120    2.3960    8.8590 C.3    12  ILE12       0.0020
      8  CD1       24.6310    4.5580    7.2020 C.3    12  ILE12       0.0001
      9  N         26.0220    0.1650    7.1450 N.am   13  CYS13      -0.1956
     10  CA        27.2120   -0.3650    7.7500 C.3    13  CYS13       0.1843
     11  C         28.4100    0.1220    6.9690 C.2    13  CYS13       0.2625
     12  O         28.2600    0.7070    5.8980 O.2    13  CYS13      -0.2714
     13  CB        27.1690   -1.8760    7.6740 C.3    13  CYS13       0.0997
     14  SG        27.3660   -2.4680    5.9040 S.3    13  CYS13      -0.0797
     15  N         29.5950   -0.1630    7.5050 N.am   14  ALA14      -0.1977
     16  CA        30.8680    0.2390    6.9170 C.3    14  ALA14       0.1597
     17  C         31.8600   -0.9010    6.9860 C.2    14  ALA14       0.2287
     18  O         32.1250   -1.4310    8.0560 O.2    14  ALA14      -0.2864
     19  CB        31.4220    1.4160    7.6700 C.3    14  ALA14       0.0319
     20  N         35.7620   -0.5440   15.9300 N.3    44  LEU44      -0.1245
     21  CA        35.9440   -0.4650   14.4900 C.3    44  LEU44       0.1561
     22  C         37.3820   -0.7440   14.0400 C.2    44  LEU44       0.2260
     23  O         38.3190   -0.1180   14.5140 O.2    44  LEU44      -0.2867
     24  CB        35.5060    0.9090   13.9760 C.3    44  LEU44       0.0270
     25  CG        34.1080    1.4390   14.3210 C.3    44  LEU44       0.0019
     26  CD1       33.9360    2.7290   13.5680 C.3    44  LEU44       0.0001
     27  CD2       33.0070    0.4740   13.9480 C.3    44  LEU44       0.0001
     28  N         39.2110    0.1690   11.5980 N.3    46  TRP46      -0.1241
     29  CA        39.9190    1.4000   11.3020 C.3    46  TRP46       0.1605
     30  C         39.8410    2.4190   12.4460 C.2    46  TRP46       0.2264
     31  O         39.3110    2.1600   13.5250 O.2    46  TRP46      -0.2867
     32  CB        39.3640    1.9950    9.9980 C.3    46  TRP46       0.0550
     33  CG        37.8910    2.2880   10.0970 C.ar   46  TRP46       0.0003
     34  CD1       37.3140    3.4070   10.6330 C.ar   46  TRP46       0.0946
     35  CD2       36.8090    1.4020    9.7680 C.ar   46  TRP46       0.0152
     36  NE1       35.9480    3.2750   10.6670 N.ar   46  TRP46      -0.2442
     37  CE2       35.6090    2.0550   10.1400 C.ar   46  TRP46       0.0810
     38  CE3       36.7340    0.1170    9.1940 C.ar   46  TRP46       0.0012
     39  CZ2       34.3460    1.4690    9.9620 C.ar   46  TRP46       0.0191
     40  CZ3       35.4810   -0.4640    9.0190 C.ar   46  TRP46       0.0001
     41  CH2       34.2970    0.2220    9.4040 C.ar   46  TRP46       0.0015
     42  N         33.0960    9.0110    6.7010 N.3    52  ASP52      -0.1225
     43  CA        32.0520    8.0140    6.8760 C.3    52  ASP52       0.1805
     44  C         31.2300    8.4480    8.0850 C.2    52  ASP52       0.2597
     45  O         29.9970    8.4680    8.0520 O.2    52  ASP52      -0.2718
     46  CB        32.6840    6.6320    7.0860 C.3    52  ASP52       0.1424
     47  CG        31.6640    5.5670    7.4660 C.2    52  ASP52       0.3668
     48  OD1       30.8730    5.1430    6.5850 O.co2  52  ASP52      -0.2456
     49  OD2       31.6600    5.1660    8.6610 O.co2  52  ASP52      -0.2456
     50  N         31.9350    8.8140    9.1450 N.am   53  MET53      -0.1979
     51  CA        31.3100    9.2820   10.3660 C.3    53  MET53       0.1605
     52  C         30.2580   10.3440   10.0230 C.2    53  MET53       0.2287
     53  O         29.1260   10.3240   10.5440 O.2    53  MET53      -0.2864
     54  CB        32.3910    9.8830   11.2590 C.3    53  MET53       0.0413
     55  CG        31.8840   10.6210   12.4710 C.3    53  MET53       0.0598
     56  SD        31.5490    9.4650   13.7930 S.3    53  MET53      -0.1393
     57  CE        33.2880    8.6970   14.0370 C.3    53  MET53       0.0692
     58  N         29.0270   10.9060    6.9650 N.3    55  TYR55      -0.1227
     59  CA        28.0550   10.3010    6.0950 C.3    55  TYR55       0.1736
     60  C         27.0260    9.6220    6.9640 C.2    55  TYR55       0.2595
     61  O         25.8550    9.9950    6.9690 O.2    55  TYR55      -0.2718
     62  CB        28.7230    9.2660    5.2290 C.3    55  TYR55       0.0548
     63  CG        27.7550    8.6000    4.3150 C.ar   55  TYR55      -0.0200
     64  CD1       27.3660    9.2100    3.1280 C.ar   55  TYR55      -0.0009
     65  CD2       27.2500    7.3420    4.6150 C.ar   55  TYR55      -0.0009
     66  CE1       26.5080    8.5800    2.2580 C.ar   55  TYR55       0.0417
     67  CE2       26.3920    6.7040    3.7560 C.ar   55  TYR55       0.0417
     68  CZ        26.0270    7.3240    2.5730 C.ar   55  TYR55       0.1957
     69  OH        25.2140    6.6570    1.6910 O.3    55  TYR55      -0.2866
     70  N         27.4790    8.6200    7.7020 N.am   56  PHE56      -0.1976
     71  CA        26.5910    7.8900    8.5740 C.3    56  PHE56       0.1639
     72  C         25.6690    8.8570    9.3070 C.2    56  PHE56       0.2290
     73  O         24.4410    8.7190    9.2770 O.2    56  PHE56      -0.2864
     74  CB        27.3860    7.1040    9.6040 C.3    56  PHE56       0.0560
     75  CG        26.5230    6.4700   10.6440 C.ar   56  PHE56      -0.0200
     76  CD1       25.8180    5.2990   10.3660 C.ar   56  PHE56      -0.0042
     77  CD2       26.3460    7.0850   11.8760 C.ar   56  PHE56      -0.0042
     78  CE1       24.9500    4.7490   11.2940 C.ar   56  PHE56      -0.0003
     79  CE2       25.4770    6.5430   12.8130 C.ar   56  PHE56      -0.0003
     80  CZ        24.7760    5.3690   12.5190 C.ar   56  PHE56      -0.0000
     81  N         20.4260   -1.1020   17.3060 N.3    93  MET93      -0.1245
     82  CA        21.7010   -1.8010   17.4130 C.3    93  MET93       0.1570
     83  C         21.7510   -2.8270   18.5080 C.2    93  MET93       0.2261
     84  O         21.0710   -2.7090   19.5230 O.2    93  MET93      -0.2867
     85  CB        22.8350   -0.8130   17.6250 C.3    93  MET93       0.0387
     86  CG        22.6790   -0.0450   18.8890 C.3    93  MET93       0.0595
     87  SD        23.6340    1.4210   18.9510 S.3    93  MET93      -0.1393
     88  CE        22.3630    2.5160   19.0220 C.3    93  MET93       0.0692
     89  N         27.4980   -3.2930   19.9330 N.3    97  SER97      -0.1217
     90  CA        27.7700   -2.0080   19.3000 C.3    97  SER97       0.1889
     91  C         27.3000   -0.8380   20.1340 C.2    97  SER97       0.2288
     92  O         27.8830    0.2450   20.0780 O.2    97  SER97      -0.2866
     93  CB        27.1380   -1.9710   17.9090 C.3    97  SER97       0.2089
     94  OG        25.7850   -2.3820   17.9500 O.3    97  SER97      -0.2183
     95  N         29.8980   -0.4480   22.4640 N.3   100  SER100     -0.1202
     96  CA        31.0740    0.0160   21.7370 C.3   100  SER100      0.2020
     97  C         31.0500    1.5070   21.4470 C.2   100  SER100      0.2618
     98  O         31.8460    2.0040   20.6570 O.2   100  SER100     -0.2717
     99  CB        31.2490   -0.7610   20.4240 C.3   100  SER100      0.2103
    100  OG        30.2390   -0.4420   19.4850 O.3   100  SER100     -0.2182
    101  N         30.1450    2.2240   22.0950 N.am  101  ILE101     -0.1979
    102  CA        30.0280    3.6570   21.8880 C.3   101  ILE101      0.1595
    103  C         30.3480    4.4590   23.1380 C.2   101  ILE101      0.2287
    104  O         29.8530    4.1590   24.2350 O.2   101  ILE101     -0.2864
    105  CB        28.6100    4.0230   21.4700 C.3   101  ILE101      0.0276
    106  CG1       28.2230    3.1900   20.2550 C.3   101  ILE101      0.0022
    107  CG2       28.5020    5.5410   21.2190 C.3   101  ILE101      0.0022
    108  CD1       26.7650    3.2080   20.0070 C.3   101  ILE101      0.0001
    109  N         22.0770    8.4090   20.4990 N.3   108  LEU108     -0.1245
    110  CA        22.3850    9.1480   19.2900 C.3   108  LEU108      0.1561
    111  C         21.2860   10.1860   19.1570 C.2   108  LEU108      0.2260
    112  O         20.0930    9.8540   19.1830 O.2   108  LEU108     -0.2867
    113  CB        22.3850    8.2170   18.0810 C.3   108  LEU108      0.0270
    114  CG        23.5600    7.2360   18.0000 C.3   108  LEU108      0.0019
    115  CD1       23.4490    6.3140   16.8060 C.3   108  LEU108      0.0001
    116  CD2       24.8230    8.0590   17.8800 C.3   108  LEU108      0.0001
    117  N         21.9120   -0.1850   12.4310 N.3   153  ILE153     -0.1245
    118  CA        23.3240    0.1820   12.3880 C.3   153  ILE153      0.1561
    119  C         24.3240   -0.7820   12.9900 C.2   153  ILE153      0.2260
    120  O         25.4710   -0.4160   13.2060 O.2   153  ILE153     -0.2867
    121  CB        23.5330    1.5430   13.0240 C.3   153  ILE153      0.0252
    122  CG1       23.1730    1.5110   14.5040 C.3   153  ILE153      0.0019
    123  CG2       22.6530    2.5480   12.3260 C.3   153  ILE153      0.0019
    124  CD1       23.6350    2.7630   15.2430 C.3   153  ILE153      0.0001
    125  N         22.4250   -7.7170   11.6220 N.3   159  TYR159     -0.1241
    126  CA        22.3230   -7.7270   10.1830 C.3   159  TYR159      0.1605
    127  C         21.8080   -9.0820    9.7600 C.2   159  TYR159      0.2264
    128  O         20.6780   -9.2190    9.3050 O.2   159  TYR159     -0.2867
    129  CB        23.6780   -7.4590    9.5460 C.3   159  TYR159      0.0534
    130  CG        24.1760   -6.0460    9.7990 C.ar  159  TYR159     -0.0201
    131  CD1       23.2820   -4.9650    9.7970 C.ar  159  TYR159     -0.0009
    132  CD2       25.5350   -5.7740   10.0020 C.ar  159  TYR159     -0.0009
    133  CE1       23.7190   -3.6630    9.9870 C.ar  159  TYR159      0.0417
    134  CE2       25.9800   -4.4640   10.1900 C.ar  159  TYR159      0.0417
    135  CZ        25.0640   -3.4190   10.1800 C.ar  159  TYR159      0.1957
    136  OH        25.4760   -2.1320   10.3500 O.3   159  TYR159     -0.2866
    137  N         29.1350    1.2650    3.0530 N.3   174  THR174     -0.1218
    138  CA        30.3220    2.0760    2.8840 C.3   174  THR174      0.1862
    139  C         31.5170    1.1650    2.6980 C.2   174  THR174      0.2287
    140  O         31.5140    0.0290    3.1510 O.2   174  THR174     -0.2866
    141  CB        30.5980    2.8790    4.1200 C.3   174  THR174      0.1770
    142  OG1       29.4440    3.6510    4.4660 O.3   174  THR174     -0.2211
    143  CG2       31.7670    3.7640    3.8840 C.3   174  THR174      0.0375
@<TRIPOS>BOND
     1    69    68    1
     2    66    68   ar
     3    66    64   ar
     4    68    67   ar
     5   139   138    1
     6   139   140    2
     7   138   137    1
     8   138   141    1
     9    64    63   ar
    10    67    65   ar
    11   143   141    1
    12   141   142    1
    13    63    65   ar
    14    63    62    1
    15    62    59    1
    16    12    11    2
    17    14    13    1
    18    59    60    1
    19    59    58    1
    20    48    47   ar
    21    42    43    1
    22    43    46    1
    23    43    44    1
    24    16    17    1
    25    16    15    1
    26    16    19    1
    27    60    61    2
    28    60    70   am
    29    11    15   am
    30    11    10    1
    31    17    18    2
    32     6     8    1
    33     6     5    1
    34    46    47    1
    35     2     5    1
    36     2     1    1
    37     2     3    1
    38     9    10    1
    39     9     3   am
    40     5     7    1
    41    47    49   ar
    42    13    10    1
    43    70    71    1
    44     3     4    2
    45    45    44    2
    46    44    50   am
    47    71    72    1
    48    71    74    1
    49    40    38   ar
    50    40    41   ar
    51    50    51    1
    52    38    35   ar
    53    73    72    2
    54   128   127    2
    55    41    39   ar
    56   129   130    1
    57   129   126    1
    58    74    75    1
    59   127   126    1
    60    35    33   ar
    61    35    37   ar
    62   131   130   ar
    63   131   133   ar
    64   130   132   ar
    65    39    37   ar
    66   133   135   ar
    67    32    33    1
    68    32    29    1
    69   132   134   ar
    70    52    51    1
    71    52    53    2
    72    33    34   ar
    73    37    36   ar
    74   135   134   ar
    75   135   136    1
    76   126   125    1
    77    51    54    1
    78    76    75   ar
    79    76    78   ar
    80    34    36   ar
    81    75    77   ar
    82    54    55    1
    83    78    80   ar
    84    29    28    1
    85    29    30    1
    86    77    79   ar
    87   123   121    1
    88   118   117    1
    89   118   119    1
    90   118   121    1
    91    30    31    2
    92    55    56    1
    93    80    79   ar
    94   119   120    2
    95   121   122    1
    96    26    25    1
    97    56    57    1
    98    27    25    1
    99    24    25    1
   100    24    21    1
   101    22    21    1
   102    22    23    2
   103    21    20    1
   104   122   124    1
   105   115   114    1
   106    81    82    1
   107    82    85    1
   108    82    83    1
   109    85    86    1
   110   116   114    1
   111    93    94    1
   112    93    90    1
   113   114   113    1
   114   113   110    1
   115    83    84    2
   116    86    87    1
   117    87    88    1
   118   111   112    2
   119   111   110    1
   120   110   109    1
   121    90    89    1
   122    90    91    1
   123   100    99    1
   124   108   106    1
   125    92    91    2
   126   106   105    1
   127    99    96    1
   128    98    97    2
   129   107   105    1
   130    97    96    1
   131    97   101   am
   132   105   102    1
   133    96    95    1
   134   102   101    1
   135   102   103    1
   136   103   104    2
