@<TRIPOS>MOLECULE
tmp/2bleA00.pdb
 181 170 0 0 0
SMALL
GASTEIGER

@<TRIPOS>ATOM
      1  N         55.5540   30.0010   12.4500 N.3    53  ALA53      -0.1231
      2  CA        56.9900   30.1230   12.7820 C.3    53  ALA53       0.1694
      3  C         57.7180   31.0890   11.8770 C.2    53  ALA53       0.2592
      4  O         57.3620   31.1810   10.7050 O.2    53  ALA53      -0.2718
      5  CB        57.7130   28.7530   12.6760 C.3    53  ALA53       0.0304
      6  N         58.7800   31.7150   12.3890 N.am   54  ASN54      -0.1960
      7  CA        59.6000   32.6820   11.5910 C.3    54  ASN54       0.1819
      8  C         60.6360   32.0650   10.6430 C.2    54  ASN54       0.2621
      9  O         61.8580   32.4180   10.6600 O.2    54  ASN54      -0.2715
     10  CB        60.2530   33.7450   12.5000 C.3    54  ASN54       0.1195
     11  CG        60.9720   33.1600   13.6510 C.2    54  ASN54       0.2630
     12  OD1       60.7590   32.0200   14.0230 O.2    54  ASN54      -0.2716
     13  ND2       61.8230   33.9540   14.2480 N.am   54  ASN54      -0.0877
     14  N         60.1320   31.1930    9.7820 N.am   55  MET55      -0.1977
     15  CA        60.9630   30.4470    8.8720 C.3    55  MET55       0.1605
     16  C         60.8480   31.0930    7.5140 C.2    55  MET55       0.2287
     17  O         59.8660   31.7310    7.2120 O.2    55  MET55      -0.2864
     18  CB        60.5130   28.9980    8.8010 C.3    55  MET55       0.0413
     19  CG        60.7230   28.2920   10.1600 C.3    55  MET55       0.0598
     20  SD        60.3130   26.5220   10.1620 S.3    55  MET55      -0.1393
     21  CE        61.3940   25.9290    8.8510 C.3    55  MET55       0.0692
     22  N         65.7780   29.3490   21.9420 N.3   158  ASN158     -0.1240
     23  CA        64.8950   28.3450   22.5120 C.3   158  ASN158      0.1653
     24  C         65.5170   27.6020   23.6510 C.2   158  ASN158      0.2266
     25  O         66.7150   27.3510   23.6190 O.2   158  ASN158     -0.2867
     26  CB        64.5830   27.2920   21.4750 C.3   158  ASN158      0.1155
     27  CG        63.5140   27.7320   20.5820 C.2   158  ASN158      0.2627
     28  OD1       63.4570   28.9280   20.3180 O.2   158  ASN158     -0.2716
     29  ND2       62.6530   26.8020   20.0780 N.am  158  ASN158     -0.0877
     30  N         60.2750   30.6640   24.1530 N.3   177  LYS177     -0.1245
     31  CA        60.0680   29.6790   23.0920 C.3   177  LYS177      0.1561
     32  C         60.7330   28.3640   23.5360 C.2   177  LYS177      0.2260
     33  O         61.9550   28.2820   23.7070 O.2   177  LYS177     -0.2867
     34  CB        60.6540   30.1880   21.7690 C.3   177  LYS177      0.0271
     35  CG        60.0110   31.4340   21.2040 C.3   177  LYS177      0.0035
     36  CD        60.7260   31.9420   19.9280 C.3   177  LYS177      0.0206
     37  CE        60.3530   31.1100   18.7060 C.3   177  LYS177      0.1093
     38  NZ        61.4900   30.7220   17.7990 N.3   177  LYS177     -0.1314
     39  N         61.4950   24.5100   22.9190 N.3   179  GLY179     -0.1225
     40  CA        61.6220   23.3710   22.0300 C.3   179  GLY179      0.1811
     41  C         62.9820   23.3100   21.3850 C.2   179  GLY179      0.2280
     42  O         63.3550   24.2600   20.7410 O.2   179  GLY179     -0.2866
     43  N         61.5920   19.7060   16.1770 N.3   183  GLY183     -0.1210
     44  CA        61.1670   20.4430   15.0040 C.3   183  GLY183      0.1956
     45  C         61.2650   19.6120   13.7750 C.2   183  GLY183      0.2613
     46  O         62.2720   18.9120   13.5790 O.2   183  GLY183     -0.2717
     47  N         60.2650   19.7050   12.8980 N.am  184  SER184     -0.1938
     48  CA        60.3040   18.9530   11.6210 C.3   184  SER184      0.2055
     49  C         61.6070   18.9820   10.8260 C.2   184  SER184      0.2643
     50  O         61.9510   17.9710   10.2220 O.2   184  SER184     -0.2714
     51  CB        59.1330   19.3240   10.6880 C.3   184  SER184      0.2130
     52  OG        59.1370   20.6920   10.3040 O.3   184  SER184     -0.2179
     53  N         62.3120   20.1100   10.7540 N.am  185  VAL185     -0.1963
     54  CA        63.5870   20.1670   10.0000 C.3   185  VAL185      0.1727
     55  C         64.8300   20.4310   10.8830 C.2   185  VAL185      0.2616
     56  O         65.9280   20.6360   10.3770 O.2   185  VAL185     -0.2715
     57  CB        63.5340   21.1490    8.7990 C.3   185  VAL185      0.0290
     58  CG1       62.5480   20.6560    7.7640 C.3   185  VAL185      0.0023
     59  CG2       63.1820   22.5900    9.2510 C.3   185  VAL185      0.0023
     60  N         64.6450   20.3530   12.1930 N.am  186  CYS186     -0.1968
     61  CA        65.7260   20.4500   13.1610 C.3   186  CYS186      0.1712
     62  C         66.5100   19.1500   13.1220 C.2   186  CYS186      0.2296
     63  O         65.9110   18.0740   13.0390 O.2   186  CYS186     -0.2864
     64  CB        65.1220   20.6000   14.5340 C.3   186  CYS186      0.0983
     65  SG        66.2200   20.6350   15.9910 S.3   186  CYS186     -0.0798
     66  N         69.1630   18.7020   15.6740 N.3   188  THR188     -0.1218
     67  CA        70.1090   18.7010   16.8270 C.3   188  THR188      0.1862
     68  C         70.3980   17.3170   17.3330 C.2   188  THR188      0.2287
     69  O         71.5310   17.0060   17.7080 O.2   188  THR188     -0.2866
     70  CB        69.6550   19.4930   18.0550 C.3   188  THR188      0.1770
     71  OG1       68.4620   18.9070   18.6040 O.3   188  THR188     -0.2211
     72  CG2       69.4570   20.9280   17.7030 C.3   188  THR188      0.0375
     73  N         57.2810   25.4860   20.6500 N.3   219  ASP219     -0.1225
     74  CA        57.8710   25.7370   19.3380 C.3   219  ASP219      0.1805
     75  C         58.4020   24.4250   18.7180 C.2   219  ASP219      0.2598
     76  O         59.3720   23.8480   19.1890 O.2   219  ASP219     -0.2718
     77  CB        58.9640   26.7980   19.4420 C.3   219  ASP219      0.1424
     78  CG        59.5880   27.1150   18.0960 C.2   219  ASP219      0.3668
     79  OD1       58.9310   26.8160   17.0890 O.co2 219  ASP219     -0.2456
     80  OD2       60.7280   27.6140   18.0230 O.co2 219  ASP219     -0.2456
     81  N         57.7430   23.9720   17.6580 N.am  220  GLY220     -0.1942
     82  CA        58.1210   22.7690   16.9540 C.3   220  GLY220      0.2014
     83  C         57.5270   21.4590   17.4410 C.2   220  GLY220      0.2639
     84  O         57.1260   21.2810   18.6200 O.2   220  GLY220     -0.2714
     85  N         57.5290   20.5070   16.5220 N.am  221  GLY221     -0.1939
     86  CA        57.2070   19.1160   16.8640 C.3   221  GLY221      0.2014
     87  C         55.7650   18.6510   16.7320 C.2   221  GLY221      0.2639
     88  O         55.4500   17.4910   17.0360 O.2   221  GLY221     -0.2714
     89  N         54.8860   19.5160   16.2320 N.am  222  CYS222     -0.1967
     90  CA        53.4900   19.1450   16.0230 C.3   222  CYS222      0.1712
     91  C         53.3520   18.6830   14.5920 C.2   222  CYS222      0.2296
     92  O         53.8180   19.3410   13.6890 O.2   222  CYS222     -0.2864
     93  CB        52.5540   20.3240   16.2220 C.3   222  CYS222      0.0983
     94  SG        52.3440   20.7560   17.9480 S.3   222  CYS222     -0.0798
     95  N         53.6330   27.2220   18.3400 N.3   240  MET240     -0.1230
     96  CA        54.1400   27.7110   17.0660 C.3   240  MET240      0.1702
     97  C         54.3980   26.5420   16.1760 C.2   240  MET240      0.2592
     98  O         54.9050   25.5310   16.6740 O.2   240  MET240     -0.2718
     99  CB        55.4580   28.5120   17.3310 C.3   240  MET240      0.0401
    100  CG        56.2960   28.8810   16.0670 C.3   240  MET240      0.0596
    101  SD        57.8180   29.8310   16.5470 S.3   240  MET240     -0.1393
    102  CE        57.0060   31.4130   16.7370 C.3   240  MET240      0.0692
    103  N         54.1520   26.7360   14.8590 N.am  241  LEU241     -0.1966
    104  CA        54.1650   25.7170   13.8570 C.3   241  LEU241      0.1728
    105  C         54.8710   26.1270   12.5830 C.2   241  LEU241      0.2617
    106  O         54.5190   27.1760   11.9730 O.2   241  LEU241     -0.2715
    107  CB        52.7170   25.4040   13.4020 C.3   241  LEU241      0.0311
    108  CG        51.6000   24.9940   14.3760 C.3   241  LEU241      0.0022
    109  CD1       50.2780   24.8460   13.5880 C.3   241  LEU241      0.0001
    110  CD2       51.9560   23.7180   15.0280 C.3   241  LEU241      0.0001
    111  N         55.7820   25.2720   12.1120 N.am  242  GLY242     -0.1940
    112  CA        56.3750   25.4900   10.7920 C.3   242  GLY242      0.2014
    113  C         55.8480   24.5210    9.7530 C.2   242  GLY242      0.2639
    114  O         55.1720   24.8900    8.7880 O.2   242  GLY242     -0.2714
    115  N         56.2260   23.2570    9.9410 N.am  243  GLY243     -0.1939
    116  CA        55.8610   22.1690    9.0230 C.3   243  GLY243      0.2014
    117  C         54.3860   22.0550    8.6930 C.2   243  GLY243      0.2638
    118  O         54.0170   21.7950    7.5060 O.2   243  GLY243     -0.2714
    119  N         53.5110   22.2070    9.7000 N.am  244  MET244     -0.1976
    120  CA        52.0610   22.1180    9.3830 C.3   244  MET244      0.1605
    121  C         51.6300   23.2840    8.5210 C.2   244  MET244      0.2287
    122  O         50.6500   23.1420    7.8020 O.2   244  MET244     -0.2864
    123  CB        51.1670   22.0310   10.6240 C.3   244  MET244      0.0413
    124  CG        51.2450   20.6600   11.3430 C.3   244  MET244      0.0598
    125  SD        50.7020   20.6580   13.0780 S.3   244  MET244     -0.1393
    126  CE        48.9630   20.8090   12.7580 C.3   244  MET244      0.0692
    127  N         60.7760   23.0950    1.4620 N.3   262  PHE262     -0.1241
    128  CA        60.6780   23.5940    2.8220 C.3   262  PHE262      0.1605
    129  C         61.9820   23.3950    3.5580 C.2   262  PHE262      0.2264
    130  O         62.3940   22.2520    3.7530 O.2   262  PHE262     -0.2867
    131  CB        59.6110   22.8210    3.5440 C.3   262  PHE262      0.0534
    132  CG        59.4350   23.2390    4.9370 C.ar  262  PHE262     -0.0203
    133  CD1       59.6590   22.3600    5.9650 C.ar  262  PHE262     -0.0042
    134  CD2       59.0510   24.5210    5.2290 C.ar  262  PHE262     -0.0042
    135  CE1       59.4980   22.7420    7.2480 C.ar  262  PHE262     -0.0003
    136  CE2       58.8640   24.9160    6.5420 C.ar  262  PHE262     -0.0003
    137  CZ        59.1010   24.0420    7.5410 C.ar  262  PHE262     -0.0000
    138  N         65.1480   24.7030    6.6420 N.3   264  GLY264     -0.1210
    139  CA        65.3300   25.2260    8.0100 C.3   264  GLY264      0.1956
    140  C         65.9750   26.5980    8.0180 C.2   264  GLY264      0.2612
    141  O         66.5880   27.0330    7.0300 O.2   264  GLY264     -0.2717
    142  N         65.8500   27.2740    9.1470 N.am  265  MET265     -0.1965
    143  CA        66.3370   28.6360    9.2860 C.3   265  MET265      0.1736
    144  C         67.8770   28.6680    9.1430 C.2   265  MET265      0.2617
    145  O         68.4270   29.5860    8.5480 O.2   265  MET265     -0.2715
    146  CB        65.8880   29.1900   10.6500 C.3   265  MET265      0.0427
    147  CG        64.4000   29.6170   10.7020 C.3   265  MET265      0.0599
    148  SD        63.6490   29.4270   12.3250 S.3   265  MET265     -0.1393
    149  CE        64.0940   30.9660   13.1930 C.3   265  MET265      0.0692
    150  N         68.5560   27.6770    9.7260 N.am  266  SER266     -0.1950
    151  CA        70.0040   27.6040    9.6480 C.3   266  SER266      0.1924
    152  C         70.4610   26.5260    8.6570 C.2   266  SER266      0.2314
    153  O         71.6120   26.0950    8.6590 O.2   266  SER266     -0.2863
    154  CB        70.5790   27.3920   11.0600 C.3   266  SER266      0.2116
    155  OG        70.3900   28.5660   11.8750 O.3   266  SER266     -0.2180
    156  N         70.0450   29.1030   14.8280 N.3   280  ARG280     -0.1231
    157  CA        69.3820   27.9790   15.4780 C.3   280  ARG280      0.1694
    158  C         70.4230   26.9360   15.8760 C.2   280  ARG280      0.2592
    159  O         71.5630   26.9550   15.3760 O.2   280  ARG280     -0.2718
    160  CB        68.3370   27.3390   14.5520 C.3   280  ARG280      0.0321
    161  CG        67.2390   28.2790   14.0230 C.3   280  ARG280      0.0489
    162  CD        66.1140   28.4730   15.0220 C.3   280  ARG280      0.2205
    163  NE        66.5520   29.1170   16.2660 N.pl3 280  ARG280     -0.0865
    164  CZ        65.7820   29.2220   17.3430 C.cat 280  ARG280      0.5346
    165  NH1       64.5400   28.7600   17.3040 N.pl3 280  ARG280      0.1354
    166  NH2       66.2440   29.7870   18.4870 N.pl3 280  ARG280      0.1354
    167  N         70.0140   26.0400   16.7750 N.am  281  ALA281     -0.1966
    168  CA        70.9360   25.0980   17.3960 C.3   281  ALA281      0.1728
    169  C         71.5410   24.0610   16.4240 C.2   281  ALA281      0.2616
    170  O         72.5750   23.4610   16.7420 O.2   281  ALA281     -0.2715
    171  CB        70.2820   24.4160   18.5630 C.3   281  ALA281      0.0334
    172  N         70.9450   23.8920   15.2430 N.am  282  SER282     -0.1950
    173  CA        71.3500   22.8810   14.2680 C.3   282  SER282      0.1924
    174  C         71.2300   23.4180   12.8430 C.2   282  SER282      0.2314
    175  O         70.4280   24.3370   12.5660 O.2   282  SER282     -0.2863
    176  CB        70.4500   21.6340   14.4070 C.3   282  SER282      0.2116
    177  OG        69.3110   21.6650   13.5240 O.3   282  SER282     -0.2180
    178  N         69.5140   22.8760    9.8820 N.3   284  GLY284     -0.1225
    179  CA        68.3110   22.1100    9.6030 C.3   284  GLY284      0.1811
    180  C         68.2150   21.5800    8.2070 C.2   284  GLY284      0.2280
    181  O         69.0100   21.9500    7.3440 O.2   284  GLY284     -0.2866
@<TRIPOS>BOND
     1   127   128    1
     2   128   131    1
     3   128   129    1
     4   131   132    1
     5   129   130    2
     6   132   134   ar
     7   132   133   ar
     8   134   136   ar
     9   133   135   ar
    10   136   137   ar
    11   138   139    1
    12   141   140    2
    13    17    16    2
    14   135   137   ar
    15   181   180    2
    16   118   117    2
    17    16    15    1
    18    58    57    1
    19   122   121    2
    20   139   140    1
    21   140   142   am
    22   180   179    1
    23   121   120    1
    24   145   144    2
    25   152   153    2
    26   152   151    1
    27   117   116    1
    28   117   119   am
    29   114   113    2
    30    57    59    1
    31    57    54    1
    32    18    15    1
    33    18    19    1
    34    21    20    1
    35    15    14    1
    36   116   115    1
    37   144   143    1
    38   144   150   am
    39   142   143    1
    40   143   146    1
    41   120   119    1
    42   120   123    1
    43   179   178    1
    44   151   150    1
    45   151   154    1
    46   113   115   am
    47   113   112    1
    48    14     8   am
    49    54    53    1
    50    54    55    1
    51    19    20    1
    52    50    49    2
    53    52    51    1
    54    56    55    2
    55   123   124    1
    56     8     9    2
    57     8     7    1
    58   146   147    1
    59    51    48    1
    60   147   148    1
    61     4     3    2
    62    53    49   am
    63   112   111    1
    64    49    48    1
    65    55    60   am
    66   154   155    1
    67   124   125    1
    68     7     6    1
    69     7    10    1
    70    48    47    1
    71     3     6   am
    72     3     2    1
    73   106   105    2
    74   111   105   am
    75    60    61    1
    76   148   149    1
    77     1     2    1
    78    10    11    1
    79   175   174    2
    80   105   104    1
    81     5     2    1
    82   126   125    1
    83   174   173    1
    84    47    45   am
    85    63    62    2
    86    62    61    1
    87    61    64    1
    88   107   104    1
    89   107   108    1
    90   177   176    1
    91    46    45    2
    92   109   108    1
    93    11    12    2
    94    11    13   am
    95    92    91    2
    96    45    44    1
    97   104   103    1
    98   161   160    1
    99   161   162    1
   100   173   176    1
   101   173   172    1
   102   108   110    1
   103    64    65    1
   104   160   157    1
   105    91    90    1
   106   156   157    1
   107   103    97   am
   108    44    43    1
   109   162   163    1
   110   172   169   am
   111   159   158    2
   112   157   158    1
   113    66    67    1
   114   158   167   am
   115    90    93    1
   116    90    89    1
   117   100   101    1
   118   100    99    1
   119    97    98    2
   120    97    96    1
   121    93    94    1
   122    89    87   am
   123   163   164    2
   124   169   170    2
   125   169   168    1
   126    85    86    1
   127    85    83   am
   128   101   102    1
   129    87    86    1
   130    87    88    2
   131   167   168    1
   132    67    68    1
   133    67    70    1
   134    82    83    1
   135    82    81    1
   136    96    99    1
   137    96    95    1
   138    79    78   ar
   139   165   164    1
   140    68    69    2
   141   164   166    1
   142   168   171    1
   143    83    84    2
   144    81    75   am
   145    72    70    1
   146    38    37    1
   147    80    78   ar
   148    70    71    1
   149    78    77    1
   150    37    36    1
   151    75    76    2
   152    75    74    1
   153    74    77    1
   154    74    73    1
   155    36    35    1
   156    29    27   am
   157    28    27    2
   158    27    26    1
   159    42    41    2
   160    35    34    1
   161    41    40    1
   162    26    23    1
   163    34    31    1
   164    22    23    1
   165    40    39    1
   166    23    24    1
   167    31    32    1
   168    31    30    1
   169    32    33    2
   170    25    24    2
