@<TRIPOS>MOLECULE
tmp/2blnB00.pdb
 206 204 0 0 0
SMALL
GASTEIGER

@<TRIPOS>ATOM
      1  N          8.2650   20.5940   22.2970 N.3    75  SER75      -0.1217
      2  CA         9.4200   19.7710   22.0220 C.3    75  SER75       0.1889
      3  C         10.6880   20.5440   22.3590 C.2    75  SER75       0.2288
      4  O         10.9090   21.6530   21.8750 O.2    75  SER75      -0.2866
      5  CB         9.4520   19.3760   20.5580 C.3    75  SER75       0.2089
      6  OG        10.6120   18.6420   20.2680 O.3    75  SER75      -0.2183
      7  N         14.2980   19.2940   22.0490 N.3    77  TYR77      -0.1227
      8  CA        15.3580   18.4080   21.5870 C.3    77  TYR77       0.1736
      9  C         14.9270   16.9540   21.5210 C.2    77  TYR77       0.2595
     10  O         15.7700   16.0730   21.4750 O.2    77  TYR77      -0.2718
     11  CB        16.6600   18.6460   22.3450 C.3    77  TYR77       0.0548
     12  CG        17.4930   19.7710   21.7750 C.ar   77  TYR77      -0.0200
     13  CD1       16.9510   21.0120   21.4320 C.ar   77  TYR77      -0.0009
     14  CD2       18.8280   19.5750   21.5410 C.ar   77  TYR77      -0.0009
     15  CE1       17.7450   21.9910   20.8990 C.ar   77  TYR77       0.0417
     16  CE2       19.6030   20.5550   21.0400 C.ar   77  TYR77       0.0417
     17  CZ        19.0630   21.7470   20.6750 C.ar   77  TYR77       0.1957
     18  OH        19.8250   22.7610   20.1260 O.3    77  TYR77      -0.2866
     19  N         13.6400   16.6900   21.4170 N.am   78  TYR78      -0.1962
     20  CA        13.2040   15.3790   20.9900 C.3    78  TYR78       0.1771
     21  C         13.6650   15.1290   19.5550 C.2    78  TYR78       0.2619
     22  O         13.6550   16.0270   18.7460 O.2    78  TYR78      -0.2715
     23  CB        11.6760   15.3260   21.1110 C.3    78  TYR78       0.0574
     24  CG        11.0910   13.9530   21.0290 C.ar   78  TYR78      -0.0198
     25  CD1       11.1010   13.1120   22.1330 C.ar   78  TYR78      -0.0009
     26  CD2       10.4540   13.5140   19.8830 C.ar   78  TYR78      -0.0009
     27  CE1       10.5460   11.8510   22.0800 C.ar   78  TYR78       0.0417
     28  CE2        9.8850   12.2720   19.8290 C.ar   78  TYR78       0.0417
     29  CZ         9.9530   11.4420   20.9200 C.ar   78  TYR78       0.1957
     30  OH         9.3700   10.1850   20.8210 O.3    78  TYR78      -0.2866
     31  N         14.0690   13.9200   19.2540 N.am   79  ARG79      -0.1963
     32  CA        14.7700   13.6540   18.0060 C.3    79  ARG79       0.1729
     33  C         13.9110   13.2990   16.8230 C.2    79  ARG79       0.2616
     34  O         14.3880   13.3880   15.6850 O.2    79  ARG79      -0.2715
     35  CB        15.7460   12.5280   18.2030 C.3    79  ARG79       0.0348
     36  CG        16.9050   12.8290   19.0940 C.3    79  ARG79       0.0492
     37  CD        17.5210   11.4740   19.4530 C.3    79  ARG79       0.2205
     38  NE        18.9020   11.5430   19.9000 N.pl3  79  ARG79      -0.0865
     39  CZ        19.5470   10.5630   20.5190 C.cat  79  ARG79       0.5346
     40  NH1       18.9360    9.4100   20.8110 N.pl3  79  ARG79       0.1354
     41  NH2       20.8140   10.7550   20.8660 N.pl3  79  ARG79       0.1354
     42  N         12.7150   12.8140   17.0440 N.am   80  HIS80      -0.1959
     43  CA        11.8980   12.2800   15.9560 C.3    80  HIS80       0.1787
     44  C         10.7500   13.1710   15.6540 C.2    80  HIS80       0.2620
     45  O         10.1460   13.7640   16.5430 O.2    80  HIS80      -0.2715
     46  CB        11.3960   10.9060   16.3360 C.3    80  HIS80       0.0785
     47  CG        12.4780    9.9720   16.7370 C.ar   80  HIS80       0.0821
     48  ND1       13.6700    9.8850   16.0410 N.ar   80  HIS80      -0.2267
     49  CD2       12.5590    9.0740   17.7430 C.ar   80  HIS80       0.1154
     50  CE1       14.4450    8.9850   16.6210 C.ar   80  HIS80       0.1986
     51  NE2       13.7920    8.4740   17.6490 N.ar   80  HIS80      -0.2212
     52  N         10.3740   13.2200   14.3800 N.am   81  LEU81      -0.1963
     53  CA         9.1860   13.9500   13.9790 C.3    81  LEU81       0.1728
     54  C          7.9700   13.4310   14.7220 C.2    81  LEU81       0.2616
     55  O          7.7360   12.2290   14.8020 O.2    81  LEU81      -0.2715
     56  CB         8.9570   13.8260   12.4690 C.3    81  LEU81       0.0311
     57  CG         9.9230   14.5980   11.5830 C.3    81  LEU81       0.0022
     58  CD1        9.6770   14.2380   10.1120 C.3    81  LEU81       0.0001
     59  CD2        9.7560   16.0630   11.7570 C.3    81  LEU81       0.0001
     60  N          7.1750   14.3520   15.2170 N.am   82  ILE82      -0.1977
     61  CA         5.9410   14.0770   15.9070 C.3    82  ILE82       0.1596
     62  C          4.8670   14.3580   14.9050 C.2    82  ILE82       0.2287
     63  O          4.7870   15.4610   14.3680 O.2    82  ILE82      -0.2864
     64  CB         5.8020   14.9680   17.1430 C.3    82  ILE82       0.0276
     65  CG1        6.9410   14.7420   18.1510 C.3    82  ILE82       0.0022
     66  CG2        4.4520   14.7540   17.8150 C.3    82  ILE82       0.0022
     67  CD1        7.2460   15.9480   19.0490 C.3    82  ILE82       0.0001
     68  N          0.2300   16.3700   17.1330 N.3    87  LEU87      -0.1245
     69  CA         0.3240   17.8080   17.2900 C.3    87  LEU87       0.1561
     70  C         -1.0180   18.4740   17.3410 C.2    87  LEU87       0.2260
     71  O         -1.2070   19.4110   18.1010 O.2    87  LEU87      -0.2867
     72  CB         1.1650   18.4580   16.2010 C.3    87  LEU87       0.0270
     73  CG         2.6080   17.9930   16.0570 C.3    87  LEU87       0.0019
     74  CD1        3.2280   18.7570   14.8630 C.3    87  LEU87       0.0001
     75  CD2        3.3790   18.2330   17.3350 C.3    87  LEU87       0.0001
     76  N          8.4080   24.2960   19.4220 N.3    96  ASN96      -0.1225
     77  CA         9.6890   23.6110   19.4120 C.3    96  ASN96       0.1785
     78  C         10.7760   24.6020   19.7330 C.2    96  ASN96       0.2597
     79  O         10.7680   25.7460   19.2540 O.2    96  ASN96      -0.2718
     80  CB         9.9740   23.0370   18.0030 C.3    96  ASN96       0.1169
     81  CG        11.2590   22.3160   17.9400 C.2    96  ASN96       0.2627
     82  OD1       11.4460   21.3210   18.6350 O.2    96  ASN96      -0.2716
     83  ND2       12.1680   22.7830   17.1000 N.am   96  ASN96      -0.0877
     84  N         11.7670   24.1620   20.4760 N.am   97  LEU97      -0.1966
     85  CA        12.9540   24.9170   20.7980 C.3    97  LEU97       0.1728
     86  C         14.0730   24.3540   19.9320 C.2    97  LEU97       0.2616
     87  O         14.4210   23.1560   20.0210 O.2    97  LEU97      -0.2715
     88  CB        13.2570   24.6910   22.2490 C.3    97  LEU97       0.0311
     89  CG        14.5020   25.2550   22.7550 C.3    97  LEU97       0.0022
     90  CD1       14.3820   26.6940   22.7740 C.3    97  LEU97       0.0001
     91  CD2       14.8010   24.7340   24.1490 C.3    97  LEU97       0.0001
     92  N         14.7130   25.2010   19.1280 N.am   98  HIS98      -0.1973
     93  CA        15.7730   24.7900   18.2180 C.3    98  HIS98       0.1656
     94  C         17.0000   25.6450   18.4520 C.2    98  HIS98       0.2291
     95  O         16.9200   26.8690   18.5420 O.2    98  HIS98      -0.2864
     96  CB        15.2750   24.9360   16.7870 C.3    98  HIS98       0.0771
     97  CG        16.2370   24.4550   15.7610 C.ar   98  HIS98       0.0820
     98  ND1       16.4230   23.1280   15.4760 N.ar   98  HIS98      -0.2267
     99  CD2       17.0850   25.1300   14.9590 C.ar   98  HIS98       0.1154
    100  CE1       17.3120   23.0140   14.5140 C.ar   98  HIS98       0.1986
    101  NE2       17.7410   24.2130   14.1940 N.ar   98  HIS98      -0.2212
    102  N         17.3420   21.6440   10.9550 N.3   107  GLY107     -0.1210
    103  CA        17.7730   20.2790   10.8570 C.3   107  GLY107      0.1956
    104  C         18.6440   19.8350   12.0130 C.2   107  GLY107      0.2611
    105  O         18.5260   20.3140   13.1460 O.2   107  GLY107     -0.2717
    106  N         19.4880   18.8640   11.7440 N.am  108  ARG108     -0.1979
    107  CA        20.2420   18.1920   12.7630 C.3   108  ARG108      0.1597
    108  C         21.4980   18.9210   13.1190 C.2   108  ARG108      0.2287
    109  O         22.0780   19.6540   12.3190 O.2   108  ARG108     -0.2864
    110  CB        20.6380   16.8090   12.2550 C.3   108  ARG108      0.0334
    111  CG        19.5160   15.9310   11.7640 C.3   108  ARG108      0.0492
    112  CD        18.5230   15.6980   12.8320 C.3   108  ARG108      0.2205
    113  NE        17.5800   14.6630   12.3940 N.pl3 108  ARG108     -0.0865
    114  CZ        16.6390   14.2000   13.1730 C.cat 108  ARG108      0.5346
    115  NH1       16.5060   14.6610   14.4110 N.pl3 108  ARG108      0.1354
    116  NH2       15.8330   13.2730   12.7110 N.pl3 108  ARG108      0.1354
    117  N          9.5910   28.2230   18.1230 N.3   127  HIS127     -0.1241
    118  CA         8.7470   28.3690   16.9490 C.3   127  HIS127      0.1621
    119  C          7.6120   27.4060   17.0010 C.2   127  HIS127      0.2264
    120  O          7.6570   26.3950   17.7100 O.2   127  HIS127     -0.2867
    121  CB         9.5640   28.2210   15.6430 C.3   127  HIS127      0.0745
    122  CG        10.1210   26.8750   15.4360 C.ar  127  HIS127      0.0817
    123  ND1        9.3930   25.9060   14.7980 N.ar  127  HIS127     -0.2268
    124  CD2       11.2760   26.2920   15.8140 C.ar  127  HIS127      0.1154
    125  CE1       10.0890   24.7970   14.7770 C.ar  127  HIS127      0.1986
    126  NE2       11.2380   24.9860   15.3890 N.ar  127  HIS127     -0.2212
    127  N          5.5270   24.3720   15.9300 N.3   129  MET129     -0.1230
    128  CA         5.9630   23.1290   15.4670 C.3   129  MET129      0.1702
    129  C          4.9790   22.6330   14.4170 C.2   129  MET129      0.2592
    130  O          3.7780   22.5470   14.6970 O.2   129  MET129     -0.2718
    131  CB         6.1680   22.1760   16.6720 C.3   129  MET129      0.0401
    132  CG         6.6750   20.8260   16.2640 C.3   129  MET129      0.0596
    133  SD         7.4970   19.8980   17.5810 S.3   129  MET129     -0.1393
    134  CE         6.3120   20.0650   18.8180 C.3   129  MET129      0.0692
    135  N          5.4940   22.3330   13.2300 N.am  130  VAL130     -0.1966
    136  CA         4.7220   21.9610   12.0940 C.3   130  VAL130      0.1727
    137  C          5.2730   20.6860   11.4540 C.2   130  VAL130      0.2616
    138  O          6.2120   20.0950   11.9450 O.2   130  VAL130     -0.2715
    139  CB         4.6110   23.1090   11.0630 C.3   130  VAL130      0.0290
    140  CG1        3.8470   24.2950   11.6630 C.3   130  VAL130      0.0023
    141  CG2        5.9710   23.5240   10.5580 C.3   130  VAL130      0.0023
    142  N          4.6560   20.2420   10.3650 N.am  131  LYS131     -0.1963
    143  CA         5.0360   18.9530    9.7650 C.3   131  LYS131      0.1728
    144  C          6.4790   18.9640    9.2870 C.2   131  LYS131      0.2616
    145  O          7.1920   17.9930    9.4560 O.2   131  LYS131     -0.2715
    146  CB         4.1040   18.6480    8.6210 C.3   131  LYS131      0.0311
    147  CG         4.3300   17.3210    7.9500 C.3   131  LYS131      0.0038
    148  CD         3.2360   17.0240    6.9240 C.3   131  LYS131      0.0206
    149  CE         3.4000   15.6130    6.3330 C.3   131  LYS131      0.1093
    150  NZ         2.2020   15.1570    5.6110 N.3   131  LYS131     -0.1314
    151  N          6.9140   20.0570    8.6520 N.am  132  ARG132     -0.1963
    152  CA         8.2710   20.2230    8.1870 C.3   132  ARG132      0.1729
    153  C          9.1520   20.6170    9.3550 C.2   132  ARG132      0.2616
    154  O          8.8640   21.5860   10.0540 O.2   132  ARG132     -0.2715
    155  CB         8.3190   21.2490    7.0590 C.3   132  ARG132      0.0348
    156  CG         7.6850   20.7310    5.7900 C.3   132  ARG132      0.0492
    157  CD         7.4840   21.7180    4.6580 C.3   132  ARG132      0.2205
    158  NE         8.7460   22.2010    4.1060 N.pl3 132  ARG132     -0.0865
    159  CZ         9.2240   23.4440    4.1880 C.cat 132  ARG132      0.5346
    160  NH1        8.5950   24.4000    4.8150 N.pl3 132  ARG132      0.1354
    161  NH2       10.3650   23.7130    3.6430 N.pl3 132  ARG132      0.1354
    162  N         10.2590   19.9100    9.5430 N.am  133  ALA133     -0.1963
    163  CA        11.1230   20.1450   10.6820 C.3   133  ALA133      0.1728
    164  C         11.6300   21.5670   10.7130 C.2   133  ALA133      0.2616
    165  O         12.0930   22.1200    9.7020 O.2   133  ALA133     -0.2715
    166  CB        12.3300   19.2040   10.6870 C.3   133  ALA133      0.0334
    167  N         11.5340   22.1610   11.8890 N.am  134  ASP134     -0.1971
    168  CA        12.1520   23.4330   12.1800 C.3   134  ASP134      0.1709
    169  C         11.6560   24.5560   11.3050 C.2   134  ASP134      0.2293
    170  O         12.3520   25.5400   11.1690 O.2   134  ASP134     -0.2864
    171  CB        13.6870   23.3220   12.1460 C.3   134  ASP134      0.1436
    172  CG        14.1990   22.2940   13.1160 C.2   134  ASP134      0.3671
    173  OD1       13.6150   22.1530   14.2220 O.co2 134  ASP134     -0.2456
    174  OD2       15.1930   21.6450   12.7970 O.co2 134  ASP134     -0.2456
    175  N         19.1950   24.0280    5.6400 N.3   191  CYS191     -0.1221
    176  CA        19.0050   22.8480    6.4250 C.3   191  CYS191      0.1808
    177  C         20.1800   21.9380    6.2770 C.2   191  CYS191      0.2601
    178  O         20.8480   21.8750    5.2070 O.2   191  CYS191     -0.2717
    179  CB        17.7970   22.0580    5.9780 C.3   191  CYS191      0.0970
    180  SG        16.5030   23.0840    5.7290 S.3   191  CYS191     -0.0800
    181  N         20.4520   21.2130    7.3430 N.am  192  PHE192     -0.1962
    182  CA        21.5830   20.3340    7.4400 C.3   192  PHE192      0.1771
    183  C         21.1510   19.0190    8.0410 C.2   192  PHE192      0.2620
    184  O         20.2070   18.9040    8.8280 O.2   192  PHE192     -0.2715
    185  CB        22.6780   20.9810    8.2860 C.3   192  PHE192      0.0574
    186  CG        23.2100   22.2170    7.6660 C.ar  192  PHE192     -0.0200
    187  CD1       24.3050   22.1900    6.8310 C.ar  192  PHE192     -0.0042
    188  CD2       22.5300   23.3970    7.8100 C.ar  192  PHE192     -0.0042
    189  CE1       24.7400   23.3260    6.1870 C.ar  192  PHE192     -0.0003
    190  CE2       22.9510   24.5490    7.1710 C.ar  192  PHE192     -0.0003
    191  CZ        24.0420   24.5200    6.3560 C.ar  192  PHE192     -0.0000
    192  N         21.8640   17.9950    7.6370 N.am  193  GLY193     -0.1940
    193  CA        21.5560   16.6630    8.0570 C.3   193  GLY193      0.2014
    194  C         22.3820   16.1960    9.2320 C.2   193  GLY193      0.2638
    195  O         23.2530   16.8570    9.7520 O.2   193  GLY193     -0.2714
    196  N         22.0710   14.9850    9.6420 N.am  194  ARG194     -0.1977
    197  CA        22.7470   14.3420   10.7270 C.3   194  ARG194      0.1597
    198  C         24.2270   14.2500   10.4570 C.2   194  ARG194      0.2287
    199  O         24.6620   14.0540    9.3100 O.2   194  ARG194     -0.2864
    200  CB        22.1680   12.9390   10.8530 C.3   194  ARG194      0.0334
    201  CG        22.8140   12.0320   11.8130 C.3   194  ARG194      0.0492
    202  CD        22.2020   10.6600   11.7310 C.3   194  ARG194      0.2205
    203  NE        22.8360    9.7750   12.6750 N.pl3 194  ARG194     -0.0865
    204  CZ        22.5080    8.5110   12.8330 C.cat 194  ARG194      0.5346
    205  NH1       21.5400    8.0010   12.0930 N.pl3 194  ARG194      0.1354
    206  NH2       23.1340    7.7760   13.7320 N.pl3 194  ARG194      0.1354
@<TRIPOS>BOND
     1   161   159    1
     2   158   159    2
     3   158   157    1
     4   159   160    1
     5   157   156    1
     6   178   177    2
     7   150   149    1
     8   175   176    1
     9   180   179    1
    10   156   155    1
    11   179   176    1
    12   189   191   ar
    13   189   187   ar
    14   177   176    1
    15   177   181   am
    16   149   148    1
    17   191   190   ar
    18   187   186   ar
    19   148   147    1
    20   155   152    1
    21   190   188   ar
    22   181   182    1
    23   182   183    1
    24   182   185    1
    25   192   183   am
    26   192   193    1
    27   186   188   ar
    28   186   185    1
    29   147   146    1
    30   183   184    2
    31   193   194    1
    32   152   151    1
    33   152   153    1
    34   146   143    1
    35   151   144   am
    36   194   196   am
    37   194   195    2
    38   144   145    2
    39   144   143    1
    40   199   198    2
    41   153   162   am
    42   153   154    2
    43   162   163    1
    44   196   197    1
    45   165   164    2
    46   143   142    1
    47    58    57    1
    48   142   137   am
    49   198   197    1
    50   141   139    1
    51   163   166    1
    52   163   164    1
    53   164   167   am
    54   197   200    1
    55   200   201    1
    56   103   102    1
    57   103   104    1
    58   139   140    1
    59   139   136    1
    60   170   169    2
    61   169   168    1
    62   137   138    2
    63   137   136    1
    64    57    59    1
    65    57    56    1
    66   202   201    1
    67   202   203    1
    68   106   104   am
    69   106   107    1
    70   111   110    1
    71   111   112    1
    72   167   168    1
    73   104   105    2
    74   205   204    1
    75   136   135    1
    76   171   168    1
    77   171   172    1
    78   110   107    1
    79   109   108    2
    80   113   112    1
    81   113   114    2
    82    56    53    1
    83   203   204    2
    84   116   114    1
    85   107   108    1
    86   174   172   ar
    87   204   206    1
    88   172   173   ar
    89   114   115    1
    90   135   129   am
    91    53    52    1
    92    53    54    1
    93   101   100   ar
    94   101    99   ar
    95    63    62    2
    96    52    44   am
    97   129   130    2
    98   129   128    1
    99   100    98   ar
   100    54    55    2
   101    54    60   am
   102   125   123   ar
   103   125   126   ar
   104   123   122   ar
   105    74    73    1
   106    62    61    1
   107    99    97   ar
   108    60    61    1
   109   126   124   ar
   110   122   121    1
   111   122   124   ar
   112   128   127    1
   113   128   131    1
   114    98    97   ar
   115   121   118    1
   116    44    43    1
   117    44    45    2
   118    34    33    2
   119    97    96    1
   120    61    64    1
   121    43    46    1
   122    43    42    1
   123    48    50   ar
   124    48    47   ar
   125    73    72    1
   126    73    75    1
   127    72    69    1
   128   132   131    1
   129   132   133    1
   130    46    47    1
   131    50    51   ar
   132    47    49   ar
   133    96    93    1
   134    33    42   am
   135    33    32    1
   136   118   119    1
   137   118   117    1
   138   119   120    2
   139    83    81   am
   140    68    69    1
   141    64    66    1
   142    64    65    1
   143    69    70    1
   144    70    71    2
   145   133   134    1
   146    51    49   ar
   147    81    80    1
   148    81    82    2
   149    80    77    1
   150    32    35    1
   151    32    31    1
   152    65    67    1
   153    35    36    1
   154    93    94    1
   155    93    92    1
   156    94    95    2
   157    22    21    2
   158    36    37    1
   159    92    86   am
   160    79    78    2
   161    31    21   am
   162    77    76    1
   163    77    78    1
   164    37    38    1
   165    21    20    1
   166    78    84   am
   167    28    26   ar
   168    28    29   ar
   169    26    24   ar
   170    38    39    2
   171    86    87    2
   172    86    85    1
   173    18    17    1
   174     6     5    1
   175    84    85    1
   176    39    40    1
   177    39    41    1
   178     5     2    1
   179    17    15   ar
   180    17    16   ar
   181    85    88    1
   182    30    29    1
   183    15    13   ar
   184    29    27   ar
   185    20    23    1
   186    20    19    1
   187    24    23    1
   188    24    25   ar
   189    16    14   ar
   190    19     9   am
   191    13    12   ar
   192    10     9    2
   193     9     8    1
   194    14    12   ar
   195     8     7    1
   196     8    11    1
   197    12    11    1
   198     4     3    2
   199     2     1    1
   200     2     3    1
   201    27    25   ar
   202    88    89    1
   203    89    90    1
   204    89    91    1
