@<TRIPOS>MOLECULE
tmp/2blnB01.pdb
 116 113 0 0 0
SMALL
GASTEIGER

@<TRIPOS>ATOM
      1  N         17.9720   15.3410   26.6540 N.3     9  HIS9       -0.1241
      2  CA        19.2340   15.9860   26.8800 C.3     9  HIS9        0.1621
      3  C         19.1290   17.2790   27.6590 C.2     9  HIS9        0.2264
      4  O         18.1740   17.4890   28.3850 O.2     9  HIS9       -0.2867
      5  CB        19.9610   16.0510   25.5730 C.3     9  HIS9        0.0745
      6  CG        20.5440   14.7280   25.1300 C.ar    9  HIS9        0.0817
      7  ND1       21.1020   14.5640   23.8890 N.ar    9  HIS9       -0.2268
      8  CD2       20.6910   13.5380   25.7650 C.ar    9  HIS9        0.1154
      9  CE1       21.5650   13.3340   23.7650 C.ar    9  HIS9        0.1986
     10  NE2       21.3460   12.6900   24.8990 N.ar    9  HIS9       -0.2212
     11  N         25.1960   14.6350   29.0880 N.3    36  TYR36      -0.1241
     12  CA        23.9740   15.4160   29.1820 C.3    36  TYR36       0.1605
     13  C         23.1350   15.0330   30.4210 C.2    36  TYR36       0.2264
     14  O         23.1720   13.8860   30.8770 O.2    36  TYR36      -0.2867
     15  CB        23.0940   15.1190   27.9570 C.3    36  TYR36       0.0534
     16  CG        23.5960   15.4400   26.5910 C.ar   36  TYR36      -0.0201
     17  CD1       23.5250   16.7420   26.1150 C.ar   36  TYR36      -0.0009
     18  CD2       24.0800   14.4610   25.7430 C.ar   36  TYR36      -0.0009
     19  CE1       23.9040   17.0750   24.8460 C.ar   36  TYR36       0.0417
     20  CE2       24.4690   14.7870   24.4300 C.ar   36  TYR36       0.0417
     21  CZ        24.3870   16.1000   23.9920 C.ar   36  TYR36       0.1957
     22  OH        24.7840   16.4580   22.7180 O.3    36  TYR36      -0.2866
     23  N         14.0690   13.9200   19.2540 N.3    79  ARG79      -0.1245
     24  CA        14.7700   13.6540   18.0060 C.3    79  ARG79       0.1563
     25  C         13.9110   13.2990   16.8230 C.2    79  ARG79       0.2260
     26  O         14.3880   13.3880   15.6850 O.2    79  ARG79      -0.2867
     27  CB        15.7460   12.5280   18.2030 C.3    79  ARG79       0.0307
     28  CG        16.9050   12.8290   19.0940 C.3    79  ARG79       0.0489
     29  CD        17.5210   11.4740   19.4530 C.3    79  ARG79       0.2205
     30  NE        18.9020   11.5430   19.9000 N.pl3  79  ARG79      -0.0865
     31  CZ        19.5470   10.5630   20.5190 C.cat  79  ARG79       0.5346
     32  NH1       18.9360    9.4100   20.8110 N.pl3  79  ARG79       0.1354
     33  NH2       20.8140   10.7550   20.8660 N.pl3  79  ARG79       0.1354
     34  N         21.9600   18.6920   14.3410 N.3   109  ALA109     -0.1245
     35  CA        23.2960   19.1300   14.8030 C.3   109  ALA109      0.1562
     36  C         23.6440   20.5820   14.5450 C.2   109  ALA109      0.2260
     37  O         24.7540   20.8810   14.1290 O.2   109  ALA109     -0.2867
     38  CB        24.3520   18.2160   14.2350 C.3   109  ALA109      0.0290
     39  N         27.0110   21.8090   16.0040 N.3   112  ASN112     -0.1240
     40  CA        28.2510   21.4410   15.3480 C.3   112  ASN112      0.1653
     41  C         28.3740   22.0500   13.9800 C.2   112  ASN112      0.2266
     42  O         29.4600   22.4940   13.6060 O.2   112  ASN112     -0.2867
     43  CB        28.3600   19.9380   15.2630 C.3   112  ASN112      0.1155
     44  CG        28.0620   19.2770   16.5910 C.2   112  ASN112      0.2627
     45  OD1       28.9610   19.0840   17.4700 O.2   112  ASN112     -0.2716
     46  ND2       26.8400   18.9760   16.7960 N.am  112  ASN112     -0.0877
     47  N         22.0710   14.9850    9.6420 N.3   194  ARG194     -0.1231
     48  CA        22.7470   14.3420   10.7270 C.3   194  ARG194      0.1694
     49  C         24.2270   14.2500   10.4570 C.2   194  ARG194      0.2592
     50  O         24.6620   14.0540    9.3100 O.2   194  ARG194     -0.2718
     51  CB        22.1680   12.9390   10.8530 C.3   194  ARG194      0.0321
     52  CG        22.8140   12.0320   11.8130 C.3   194  ARG194      0.0489
     53  CD        22.2020   10.6600   11.7310 C.3   194  ARG194      0.2205
     54  NE        22.8360    9.7750   12.6750 N.pl3 194  ARG194     -0.0865
     55  CZ        22.5080    8.5110   12.8330 C.cat 194  ARG194      0.5346
     56  NH1       21.5400    8.0010   12.0930 N.pl3 194  ARG194      0.1354
     57  NH2       23.1340    7.7760   13.7320 N.pl3 194  ARG194      0.1354
     58  N         25.0050   14.4220   11.5070 N.am  195  ARG195     -0.1966
     59  CA        26.4390   14.2670   11.4750 C.3   195  ARG195      0.1729
     60  C         26.8310   13.0210   12.2150 C.2   195  ARG195      0.2617
     61  O         26.3170   12.7420   13.3030 O.2   195  ARG195     -0.2715
     62  CB        27.0960   15.4510   12.1230 C.3   195  ARG195      0.0348
     63  CG        26.8310   16.7200   11.3590 C.3   195  ARG195      0.0492
     64  CD        27.4780   17.9740   12.0000 C.3   195  ARG195      0.2205
     65  NE        28.9060   17.7520   12.1410 N.pl3 195  ARG195     -0.0865
     66  CZ        29.7700   17.8140   11.1360 C.cat 195  ARG195      0.5346
     67  NH1       29.4240   18.3380    9.9810 N.pl3 195  ARG195      0.1354
     68  NH2       30.9870   17.4250   11.3220 N.pl3 195  ARG195      0.1354
     69  N         27.7500   12.2940   11.6190 N.am  196  THR196     -0.1937
     70  CA        28.2740   11.1040   12.1910 C.3   196  THR196      0.2013
     71  C         29.7840   11.3060   12.3480 C.2   196  THR196      0.2484
     72  O         30.3720   12.2380   11.8230 O.2   196  THR196     -0.2729
     73  CB        27.9820    9.8850   11.3170 C.3   196  THR196      0.1807
     74  OG1       28.7180    9.9890   10.1110 O.3   196  THR196     -0.2208
     75  CG2       26.5100    9.7770   11.0080 C.3   196  THR196      0.0379
     76  N         30.4590   10.4250   13.0870 N.am  197  PRO197     -0.2726
     77  CA        31.8800   10.6670   13.3170 C.3   197  PRO197      0.1402
     78  C         32.7230   10.7970   12.0680 C.2   197  PRO197      0.2269
     79  O         33.6610   11.6170   12.0500 O.2   197  PRO197     -0.2865
     80  CB        32.2860    9.4980   14.1920 C.3   197  PRO197      0.0296
     81  CG        31.0250    9.1780   14.9740 C.3   197  PRO197      0.0237
     82  CD        29.9360    9.3380   13.9280 C.3   197  PRO197      0.0939
     83  N         33.9900   14.1100   10.3340 N.3   200  SER200     -0.1217
     84  CA        35.0570   14.9190   10.8470 C.3   200  SER200      0.1889
     85  C         36.4280   14.4400   10.3970 C.2   200  SER200      0.2288
     86  O         37.4140   14.6750   11.0710 O.2   200  SER200     -0.2866
     87  CB        34.9470   14.9890   12.3530 C.3   200  SER200      0.2089
     88  OG        33.7110   15.5510   12.7280 O.3   200  SER200     -0.2183
     89  N         33.8230   19.2170   16.9250 N.3   218  VAL218     -0.1245
     90  CA        33.6310   17.9010   17.5390 C.3   218  VAL218      0.1561
     91  C         34.6590   17.6040   18.6160 C.2   218  VAL218      0.2260
     92  O         34.9300   16.4670   18.9550 O.2   218  VAL218     -0.2867
     93  CB        33.5670   16.7780   16.4650 C.3   218  VAL218      0.0252
     94  CG1       32.3610   16.9310   15.6080 C.3   218  VAL218      0.0019
     95  CG2       34.8530   16.7030   15.6680 C.3   218  VAL218      0.0019
     96  N         32.5460   15.3680   22.1380 N.3   222  TRP222     -0.1228
     97  CA        32.1820   14.8830   20.8220 C.3   222  TRP222      0.1722
     98  C         33.3180   14.0160   20.2670 C.2   222  TRP222      0.2437
     99  O         34.3150   13.8170   20.9450 O.2   222  TRP222     -0.2733
    100  CB        31.7950   16.0690   19.9310 C.3   222  TRP222      0.0563
    101  CG        30.3920   16.5250   20.1090 C.ar  222  TRP222      0.0003
    102  CD1       29.3330   16.1520   19.3640 C.ar  222  TRP222      0.0946
    103  CD2       29.8830   17.3390   21.1540 C.ar  222  TRP222      0.0152
    104  NE1       28.1800   16.7340   19.8380 N.ar  222  TRP222     -0.2442
    105  CE2       28.4950   17.4710   20.9420 C.ar  222  TRP222      0.0810
    106  CE3       30.4570   18.0130   22.2240 C.ar  222  TRP222      0.0012
    107  CZ2       27.6760   18.2070   21.7850 C.ar  222  TRP222      0.0191
    108  CZ3       29.6460   18.7830   23.0310 C.ar  222  TRP222      0.0001
    109  CH2       28.2720   18.8520   22.8160 C.ar  222  TRP222      0.0015
    110  N         33.1130   13.3880   19.0950 N.am  223  PRO223     -0.2729
    111  CA        34.0200   12.2880   18.7280 C.3   223  PRO223      0.1401
    112  C         35.3980   12.6460   18.2440 C.2   223  PRO223      0.2269
    113  O         36.2400   11.7680   18.1000 O.2   223  PRO223     -0.2865
    114  CB        33.2290   11.5720   17.6210 C.3   223  PRO223      0.0296
    115  CG        31.8100   11.9000   17.8760 C.3   223  PRO223      0.0237
    116  CD        31.8550   13.3180   18.3300 C.3   223  PRO223      0.0939
@<TRIPOS>BOND
     1    50    49    2
     2    47    48    1
     3    67    66    1
     4    74    73    1
     5    83    84    1
     6    85    84    1
     7    85    86    2
     8    49    48    1
     9    49    58   am
    10    48    51    1
    11    84    87    1
    12    51    52    1
    13    75    73    1
    14    66    68    1
    15    66    65    2
    16    73    70    1
    17    63    64    1
    18    63    62    1
    19    59    58    1
    20    59    62    1
    21    59    60    1
    22    69    70    1
    23    69    60   am
    24    53    52    1
    25    53    54    1
    26    72    71    2
    27    64    65    1
    28    79    78    2
    29    78    77    1
    30    56    55    1
    31    70    71    1
    32    60    61    2
    33    71    76   am
    34    87    88    1
    35    54    55    2
    36    55    57    1
    37    76    77    1
    38    76    82    1
    39    77    80    1
    40    42    41    2
    41    82    81    1
    42    41    40    1
    43    37    36    2
    44    80    81    1
    45    38    35    1
    46    34    35    1
    47    36    35    1
    48    43    40    1
    49    43    44    1
    50    40    39    1
    51    94    93    1
    52    95    93    1
    53    26    25    2
    54    93    90    1
    55    44    46   am
    56    44    45    2
    57    25    24    1
    58    89    90    1
    59    90    91    1
    60   114   115    1
    61   114   111    1
    62   115   116    1
    63    24    27    1
    64    24    23    1
    65   113   112    2
    66    27    28    1
    67   112   111    1
    68   116   110    1
    69    91    92    2
    70   111   110    1
    71    28    29    1
    72   110    98   am
    73   102   104   ar
    74   102   101   ar
    75    29    30    1
    76   104   105   ar
    77    30    31    2
    78   100   101    1
    79   100    97    1
    80   101   103   ar
    81    98    97    1
    82    98    99    2
    83    31    32    1
    84    31    33    1
    85    97    96    1
    86   105   103   ar
    87   105   107   ar
    88   103   106   ar
    89   107   109   ar
    90   106   108   ar
    91    22    21    1
    92   109   108   ar
    93     9     7   ar
    94     9    10   ar
    95     7     6   ar
    96    21    20   ar
    97    21    19   ar
    98    20    18   ar
    99    19    17   ar
   100    10     8   ar
   101     6     5    1
   102     6     8   ar
   103     5     2    1
   104    18    16   ar
   105    17    16   ar
   106    16    15    1
   107     1     2    1
   108     2     3    1
   109     3     4    2
   110    15    12    1
   111    11    12    1
   112    12    13    1
   113    13    14    2
