@<TRIPOS>MOLECULE
tmp/2blxA01.pdb
 98 95 0 0 0
SMALL
GASTEIGER

@<TRIPOS>ATOM
      1  N          3.6160   23.3930   14.5540 N.3    35  GLU35      -0.1245
      2  CA         4.3110   22.5430   15.5310 C.3    35  GLU35       0.1567
      3  C          4.9440   21.3230   14.8600 C.2    35  GLU35       0.2260
      4  O          6.0690   20.9360   15.2060 O.2    35  GLU35      -0.2867
      5  CB         3.3440   22.1090   16.6330 C.3    35  GLU35       0.0388
      6  CG         2.9000   23.2310   17.5520 C.3    35  GLU35       0.1160
      7  CD         3.9890   23.6910   18.5020 C.2    35  GLU35       0.3649
      8  OE1        5.1190   23.1770   18.4200 O.co2  35  GLU35      -0.2457
      9  OE2        3.6760   24.6730   19.2030 O.co2  35  GLU35      -0.2457
     10  N         13.9110   19.8300   23.6870 N.3    46  ASN46      -0.1240
     11  CA        13.9820   21.1580   24.2730 C.3    46  ASN46       0.1653
     12  C         15.3210   21.3360   25.0010 C.2    46  ASN46       0.2266
     13  O         15.9690   20.3830   25.3860 O.2    46  ASN46      -0.2867
     14  CB        12.8140   21.3380   25.2990 C.3    46  ASN46       0.1155
     15  CG        11.4610   21.1540   24.7020 C.2    46  ASN46       0.2627
     16  OD1       10.5840   20.4610   25.3060 O.2    46  ASN46      -0.2716
     17  ND2       11.2470   21.7010   23.5770 N.am   46  ASN46      -0.0877
     18  N          9.3330   17.2720   22.9290 N.3    52  ASP52      -0.1239
     19  CA         7.9470   17.4800   22.4790 C.3    52  ASP52       0.1674
     20  C          7.5820   16.4200   21.4460 C.2    52  ASP52       0.2266
     21  O          8.3930   16.0770   20.5850 O.2    52  ASP52      -0.2867
     22  CB         7.8460   18.8440   21.8130 C.3    52  ASP52       0.1410
     23  CG         8.3770   19.9190   22.6680 C.2    52  ASP52       0.3668
     24  OD1        8.0080   20.0160   23.8510 O.co2  52  ASP52      -0.2456
     25  OD2        9.3130   20.6240   22.1350 O.co2  52  ASP52      -0.2456
     26  N          3.0460   18.6160   19.4800 N.3    57  GLN57      -0.1231
     27  CA         4.3020   18.8300   20.1540 C.3    57  GLN57       0.1698
     28  C          4.1030   18.9910   21.6420 C.2    57  GLN57       0.2592
     29  O          4.6150   19.9430   22.2700 O.2    57  GLN57      -0.2718
     30  CB         5.0410   19.9870   19.5070 C.3    57  GLN57       0.0381
     31  CG         5.5710   19.6480   18.1170 C.3    57  GLN57       0.0905
     32  CD         6.6870   18.6470   18.1690 C.2    57  GLN57       0.2608
     33  OE1        7.8350   19.0330   18.4720 O.2    57  GLN57      -0.2717
     34  NE2        6.3690   17.3710   17.9380 N.am   57  GLN57      -0.0878
     35  N          3.4730   17.9970   22.2520 N.am   58  ILE58      -0.1966
     36  CA         3.2160   17.9690   23.6810 C.3    58  ILE58       0.1727
     37  C          4.4960   17.5870   24.4490 C.2    58  ILE58       0.2616
     38  O          5.2160   16.6500   24.0890 O.2    58  ILE58      -0.2715
     39  CB         2.0740   17.0380   23.9270 C.3    58  ILE58       0.0290
     40  CG1        0.7690   17.6830   23.3610 C.3    58  ILE58       0.0022
     41  CG2        1.9690   16.6670   25.4050 C.3    58  ILE58       0.0023
     42  CD1       -0.4150   16.8640   23.3690 C.3    58  ILE58       0.0001
     43  N          4.7700   18.3760   25.4890 N.am   59  ASN59      -0.1972
     44  CA         6.0890   18.3580   26.1630 C.3    59  ASN59       0.1688
     45  C          6.0970   17.3480   27.3210 C.2    59  ASN59       0.2292
     46  O          5.2660   17.4250   28.2230 O.2    59  ASN59      -0.2864
     47  CB         6.3390   19.8110   26.6240 C.3    59  ASN59       0.1181
     48  CG         7.6880   20.1020   27.1280 C.2    59  ASN59       0.2629
     49  OD1        8.4380   19.2460   27.3310 O.2    59  ASN59      -0.2716
     50  ND2        8.0140   21.4150   27.3110 N.am   59  ASN59      -0.0877
     51  N          3.6310   16.5650   30.5850 N.3    63  TRP63      -0.1241
     52  CA         2.3600   15.9820   30.1450 C.3    63  TRP63       0.1605
     53  C          2.3910   14.4590   29.8560 C.2    63  TRP63       0.2264
     54  O          1.3460   13.8520   29.7960 O.2    63  TRP63      -0.2867
     55  CB         1.8630   16.7000   28.8800 C.3    63  TRP63       0.0550
     56  CG         1.6680   18.1520   29.1360 C.ar   63  TRP63       0.0003
     57  CD1        2.4730   19.1590   28.7100 C.ar   63  TRP63       0.0946
     58  CD2        0.7170   18.7210   30.0100 C.ar   63  TRP63       0.0152
     59  NE1        2.0050   20.3750   29.1990 N.ar   63  TRP63      -0.2442
     60  CE2        0.9510   20.1300   30.0210 C.ar   63  TRP63       0.0810
     61  CE3       -0.3750   18.2290   30.6940 C.ar   63  TRP63       0.0012
     62  CZ2        0.1680   21.0090   30.7470 C.ar   63  TRP63       0.0191
     63  CZ3       -1.1640   19.1210   31.3980 C.ar   63  TRP63       0.0001
     64  CH2       -0.8810   20.4730   31.4240 C.ar   63  TRP63       0.0015
     65  N         -4.1580   20.4390   28.4510 N.3    98  ILE98      -0.1245
     66  CA        -3.1810   21.5240   28.3560 C.3    98  ILE98       0.1561
     67  C         -3.8530   22.8740   28.1580 C.2    98  ILE98       0.2260
     68  O         -3.5200   23.8250   28.8590 O.2    98  ILE98      -0.2867
     69  CB        -2.1680   21.2780   27.2020 C.3    98  ILE98       0.0252
     70  CG1       -1.4110   19.9830   27.4440 C.3    98  ILE98       0.0019
     71  CG2       -1.2680   22.4480   27.0430 C.3    98  ILE98       0.0019
     72  CD1       -0.6320   19.4710   26.2890 C.3    98  ILE98       0.0001
     73  N          0.0150   28.1720   25.6010 N.3   107  ALA107     -0.1231
     74  CA         0.8830   27.0550   25.9440 C.3   107  ALA107      0.1694
     75  C          1.7420   26.6220   24.7690 C.2   107  ALA107      0.2592
     76  O          2.8610   26.0910   24.9550 O.2   107  ALA107     -0.2718
     77  CB         0.1050   25.9110   26.4520 C.3   107  ALA107      0.0304
     78  N          1.2100   26.7710   23.5500 N.am  108  TRP108     -0.1962
     79  CA         1.9150   26.4350   22.3030 C.3   108  TRP108      0.1771
     80  C          2.5600   27.6950   21.7890 C.2   108  TRP108      0.2619
     81  O          1.9010   28.5580   21.1820 O.2   108  TRP108     -0.2715
     82  CB         0.9830   25.8030   21.2820 C.3   108  TRP108      0.0590
     83  CG         0.5240   24.4600   21.6260 C.ar  108  TRP108      0.0006
     84  CD1        1.1430   23.2970   21.3020 C.ar  108  TRP108      0.0946
     85  CD2       -0.6730   24.0710   22.3560 C.ar  108  TRP108      0.0152
     86  NE1        0.4560   22.2270   21.7830 N.ar  108  TRP108     -0.2442
     87  CE2       -0.6600   22.6690   22.4600 C.ar  108  TRP108      0.0810
     88  CE3       -1.6920   24.7530   22.9690 C.ar  108  TRP108      0.0012
     89  CZ2       -1.6630   21.9610   23.0730 C.ar  108  TRP108      0.0191
     90  CZ3       -2.6710   24.0410   23.6310 C.ar  108  TRP108      0.0001
     91  CH2       -2.6750   22.6570   23.6380 C.ar  108  TRP108      0.0015
     92  N          3.8660   27.8590   22.0040 N.am  109  VAL109     -0.1977
     93  CA         4.5250   29.0530   21.5470 C.3   109  VAL109      0.1596
     94  C          4.3870   29.2680   20.0390 C.2   109  VAL109      0.2287
     95  O          4.2460   30.4090   19.5970 O.2   109  VAL109     -0.2864
     96  CB         6.0220   29.0390   21.9540 C.3   109  VAL109      0.0276
     97  CG1        6.7690   27.9460   21.2730 C.3   109  VAL109      0.0022
     98  CG2        6.7160   30.3580   21.6410 C.3   109  VAL109      0.0022
@<TRIPOS>BOND
     1     1     2    1
     2     3     4    2
     3     3     2    1
     4     2     5    1
     5     5     6    1
     6     6     7    1
     7    34    32   am
     8    31    32    1
     9    31    30    1
    10    32    33    2
    11     8     7   ar
    12     7     9   ar
    13    26    27    1
    14    30    27    1
    15    95    94    2
    16    94    93    1
    17    27    28    1
    18    21    20    2
    19    81    80    2
    20    97    96    1
    21    82    83    1
    22    82    79    1
    23    84    83   ar
    24    84    86   ar
    25    20    19    1
    26    93    96    1
    27    93    92    1
    28    83    85   ar
    29    98    96    1
    30    28    35   am
    31    28    29    2
    32    86    87   ar
    33    80    92   am
    34    80    79    1
    35    22    19    1
    36    22    23    1
    37    25    23   ar
    38    35    36    1
    39    79    78    1
    40    85    87   ar
    41    85    88   ar
    42    87    89   ar
    43    19    18    1
    44    23    24   ar
    45    88    90   ar
    46    89    91   ar
    47    40    42    1
    48    40    39    1
    49    78    75   am
    50    17    15   am
    51    90    91   ar
    52    36    39    1
    53    36    37    1
    54    10    11    1
    55    39    41    1
    56    38    37    2
    57    11    12    1
    58    11    14    1
    59    37    43   am
    60    15    14    1
    61    15    16    2
    62    75    76    2
    63    75    74    1
    64    12    13    2
    65    43    44    1
    66    73    74    1
    67    74    77    1
    68    44    47    1
    69    44    45    1
    70    72    70    1
    71    47    48    1
    72    71    69    1
    73    48    50   am
    74    48    49    2
    75    69    70    1
    76    69    66    1
    77    45    46    2
    78    67    66    1
    79    67    68    2
    80    66    65    1
    81    57    56   ar
    82    57    59   ar
    83    55    56    1
    84    55    52    1
    85    56    58   ar
    86    59    60   ar
    87    54    53    2
    88    53    52    1
    89    58    60   ar
    90    58    61   ar
    91    60    62   ar
    92    52    51    1
    93    61    63   ar
    94    62    64   ar
    95    63    64   ar
