@<TRIPOS>MOLECULE
tmp/2bm0A00.pdb
 116 113 0 0 0
SMALL
GASTEIGER

@<TRIPOS>ATOM
      1  N          4.0390  -54.5570   16.4000 N.3    16  ALA16      -0.1231
      2  CA         3.8630  -55.6550   15.4610 C.3    16  ALA16       0.1694
      3  C          2.3910  -55.9260   15.1990 C.2    16  ALA16       0.2592
      4  O          1.5580  -55.7060   16.0720 O.2    16  ALA16      -0.2718
      5  CB         4.5550  -56.9090   15.9980 C.3    16  ALA16       0.0304
      6  N          2.0760  -56.3960   13.9920 N.am   17  HIS17      -0.1962
      7  CA         0.7410  -56.9190   13.7070 C.3    17  HIS17       0.1787
      8  C          0.5110  -58.0320   14.7110 C.2    17  HIS17       0.2620
      9  O          1.4790  -58.6450   15.1710 O.2    17  HIS17      -0.2715
     10  CB         0.6360  -57.4570   12.2740 C.3    17  HIS17       0.0785
     11  CG        -0.7600  -57.8040   11.8650 C.ar   17  HIS17       0.0821
     12  ND1       -1.2120  -59.1050   11.7800 N.ar   17  HIS17      -0.2267
     13  CD2       -1.8130  -57.0210   11.5310 C.ar   17  HIS17       0.1154
     14  CE1       -2.4810  -59.1080   11.4070 C.ar   17  HIS17       0.1986
     15  NE2       -2.8690  -57.8560   11.2440 N.ar   17  HIS17      -0.2212
     16  N         -0.7430  -58.2760   15.0900 N.am   18  ILE18      -0.1963
     17  CA        -1.0180  -59.3570   16.0340 C.3    18  ILE18       0.1727
     18  C         -0.4210  -60.6370   15.4320 C.2    18  ILE18       0.2616
     19  O         -0.4780  -60.8380   14.2130 O.2    18  ILE18      -0.2715
     20  CB        -2.5390  -59.4980   16.3600 C.3    18  ILE18       0.0290
     21  CG1       -2.7690  -60.5060   17.5010 C.3    18  ILE18       0.0022
     22  CG2       -3.3490  -59.9310   15.1280 C.3    18  ILE18       0.0023
     23  CD1       -3.3740  -59.8940   18.7700 C.3    18  ILE18       0.0001
     24  N          0.2260  -61.4350   16.2840 N.am   19  ASP19      -0.1957
     25  CA         0.7890  -62.7440   15.9190 C.3    19  ASP19       0.1840
     26  C          2.1290  -62.7200   15.1570 C.2    19  ASP19       0.2622
     27  O          2.6090  -63.7690   14.7510 O.2    19  ASP19      -0.2715
     28  CB        -0.2440  -63.5610   15.1260 C.3    19  ASP19       0.1450
     29  CG        -0.3090  -65.0190   15.5540 C.2    19  ASP19       0.3671
     30  OD1       -0.3350  -65.2970   16.7750 O.co2  19  ASP19      -0.2456
     31  OD2       -0.3780  -65.9560   14.7290 O.co2  19  ASP19      -0.2456
     32  N          2.7400  -61.5500   14.9800 N.am   20  ALA20      -0.1963
     33  CA         4.0400  -61.4490   14.2860 C.3    20  ALA20       0.1728
     34  C          5.2310  -61.9100   15.1360 C.2    20  ALA20       0.2617
     35  O          6.2220  -62.4290   14.5970 O.2    20  ALA20      -0.2715
     36  CB         4.2810  -60.0280   13.8200 C.3    20  ALA20       0.0334
     37  N          5.1300  -61.6960   16.4500 N.am   21  GLY21      -0.1940
     38  CA         6.1720  -62.0680   17.3960 C.3    21  GLY21       0.2014
     39  C          6.5950  -60.9860   18.3830 C.2    21  GLY21       0.2639
     40  O          7.7240  -60.9870   18.8430 O.2    21  GLY21      -0.2714
     41  N          5.7070  -60.0630   18.7180 N.am   22  LYS22      -0.1963
     42  CA         6.0240  -59.0060   19.6700 C.3    22  LYS22       0.1728
     43  C          6.4240  -59.6110   21.0180 C.2    22  LYS22       0.2617
     44  O          7.4780  -59.2930   21.5720 O.2    22  LYS22      -0.2715
     45  CB         4.8190  -58.0810   19.8500 C.3    22  LYS22       0.0311
     46  CG         4.8970  -57.1850   21.0740 C.3    22  LYS22       0.0038
     47  CD         3.8770  -56.0760   21.0110 C.3    22  LYS22       0.0206
     48  CE         3.9280  -55.2250   22.2610 C.3    22  LYS22       0.1093
     49  NZ         3.2740  -53.8910   22.0540 N.3    22  LYS22      -0.1314
     50  N          5.5710  -60.4980   21.5220 N.am   23  THR23      -0.1937
     51  CA         5.7040  -61.0570   22.8650 C.3    23  THR23       0.2028
     52  C          6.9280  -61.9660   22.9960 C.2    23  THR23       0.2642
     53  O          7.6850  -61.8650   23.9570 O.2    23  THR23      -0.2714
     54  CB         4.3980  -61.8150   23.2490 C.3    23  THR23       0.1808
     55  OG1        3.3790  -60.8600   23.5650 O.3    23  THR23      -0.2208
     56  CG2        4.5510  -62.6210   24.5430 C.3    23  THR23       0.0379
     57  N          7.0950  -62.8610   22.0320 N.am   24  THR24      -0.1950
     58  CA         8.2280  -63.7730   22.0110 C.3    24  THR24       0.1897
     59  C          9.5280  -63.0190   21.9190 C.2    24  THR24       0.2313
     60  O         10.4860  -63.3940   22.5800 O.2    24  THR24      -0.2863
     61  CB         8.1380  -64.6900   20.8090 C.3    24  THR24       0.1794
     62  OG1        6.8980  -65.3920   20.8460 O.3    24  THR24      -0.2208
     63  CG2        9.2090  -65.7650   20.8690 C.3    24  THR24       0.0378
     64  N         11.0800  -61.4660   11.6300 N.3   114  ASN114     -0.1225
     65  CA        11.1990  -62.3150   12.8010 C.3   114  ASN114      0.1785
     66  C         10.9810  -63.7900   12.6840 C.2   114  ASN114      0.2597
     67  O         11.2270  -64.4530   13.6890 O.2   114  ASN114     -0.2718
     68  CB        10.2350  -61.9080   13.9150 C.3   114  ASN114      0.1169
     69  CG        10.0770  -63.0290   14.9470 C.2   114  ASN114      0.2627
     70  OD1        8.9700  -63.4520   15.3080 O.2   114  ASN114     -0.2716
     71  ND2       11.2140  -63.5520   15.3840 N.am  114  ASN114     -0.0877
     72  N         10.4920  -64.3590   11.5890 N.am  115  LYS115     -0.1980
     73  CA        10.2410  -65.8260   11.6470 C.3   115  LYS115      0.1596
     74  C         10.9970  -66.6150   10.5690 C.2   115  LYS115      0.2287
     75  O         10.4170  -67.4270    9.8440 O.2   115  LYS115     -0.2864
     76  CB         8.7450  -66.1220   11.5550 C.3   115  LYS115      0.0298
     77  CG         7.9650  -65.8350   12.8070 C.3   115  LYS115      0.0038
     78  CD         6.5430  -65.4750   12.4590 C.3   115  LYS115      0.0206
     79  CE         5.5910  -65.5730   13.6310 C.3   115  LYS115      0.1093
     80  NZ         4.7700  -66.7940   13.5200 N.3   115  LYS115     -0.1314
     81  N         13.0160  -69.0450   10.5770 N.3   117  ASP117     -0.1225
     82  CA        12.9390  -70.5120   10.7020 C.3   117  ASP117      0.1805
     83  C         11.7450  -71.1280    9.9580 C.2   117  ASP117      0.2597
     84  O         11.8600  -72.1910    9.3840 O.2   117  ASP117     -0.2718
     85  CB        12.8960  -70.9250   12.1870 C.3   117  ASP117      0.1424
     86  CG        11.6060  -70.4960   12.8850 C.2   117  ASP117      0.3668
     87  OD1       11.4400  -69.2730   13.1470 O.co2 117  ASP117     -0.2456
     88  OD2       10.7030  -71.3180   13.1860 O.co2 117  ASP117     -0.2456
     89  N         10.6190  -70.4300    9.9610 N.am  118  LYS118     -0.1979
     90  CA         9.3410  -70.9330    9.4660 C.3   118  LYS118      0.1596
     91  C          9.3060  -71.1810    7.9520 C.2   118  LYS118      0.2287
     92  O         10.0910  -70.6060    7.1960 O.2   118  LYS118     -0.2864
     93  CB         8.2570  -69.9210    9.8470 C.3   118  LYS118      0.0298
     94  CG         6.8760  -70.4730   10.0330 C.3   118  LYS118      0.0038
     95  CD         6.0310  -69.4790   10.8300 C.3   118  LYS118      0.0206
     96  CE         4.5600  -69.5770   10.4850 C.3   118  LYS118      0.1093
     97  NZ         3.6840  -69.5620   11.6940 N.3   118  LYS118     -0.1314
     98  N         14.8760  -65.7160   14.1060 N.3   239  SER239     -0.1202
     99  CA        13.7690  -66.3930   14.7520 C.3   239  SER239      0.2020
    100  C         13.9030  -66.1430   16.2470 C.2   239  SER239      0.2619
    101  O         14.8110  -66.6750   16.8750 O.2   239  SER239     -0.2717
    102  CB        13.8450  -67.8900   14.4930 C.3   239  SER239      0.2103
    103  OG        12.8470  -68.6070   15.2150 O.3   239  SER239     -0.2182
    104  N         13.0210  -65.3280   16.8170 N.am  240  ALA240     -0.1965
    105  CA        12.8920  -65.2400   18.2700 C.3   240  ALA240      0.1728
    106  C         12.7020  -66.6280   18.8940 C.2   240  ALA240      0.2616
    107  O         13.3900  -66.9720   19.8530 O.2   240  ALA240     -0.2715
    108  CB        11.7340  -64.3810   18.6320 C.3   240  ALA240      0.0334
    109  N         11.7700  -67.4170   18.3550 N.am  241  LEU241     -0.1977
    110  CA        11.4570  -68.7380   18.9120 C.3   241  LEU241      0.1596
    111  C         12.6820  -69.6580   18.9890 C.2   241  LEU241      0.2287
    112  O         12.8800  -70.3650   19.9830 O.2   241  LEU241     -0.2864
    113  CB        10.3480  -69.4570   18.1080 C.3   241  LEU241      0.0297
    114  CG         9.2390  -70.1710   18.9030 C.3   241  LEU241      0.0022
    115  CD1        8.5940  -71.2570   18.0520 C.3   241  LEU241      0.0001
    116  CD2        9.7320  -70.7620   20.2000 C.3   241  LEU241      0.0001
@<TRIPOS>BOND
     1    92    91    2
     2    91    90    1
     3    84    83    2
     4    90    93    1
     5    90    89    1
     6    75    74    2
     7    93    94    1
     8    83    89   am
     9    83    82    1
    10    94    95    1
    11    96    95    1
    12    96    97    1
    13    74    73    1
    14    81    82    1
    15    82    85    1
    16    15    14   ar
    17    15    13   ar
    18    14    12   ar
    19    13    11   ar
    20    76    73    1
    21    76    77    1
    22    72    73    1
    23    72    66   am
    24    64    65    1
    25    12    11   ar
    26    11    10    1
    27    85    86    1
    28    10     7    1
    29    78    77    1
    30    78    79    1
    31    66    65    1
    32    66    67    2
    33    65    68    1
    34    86    87   ar
    35    86    88   ar
    36    80    79    1
    37     7     6    1
    38     7     8    1
    39    36    33    1
    40    68    69    1
    41     6     3   am
    42    98    99    1
    43    19    18    2
    44    33    32    1
    45    33    34    1
    46   102    99    1
    47   102   103    1
    48    35    34    2
    49     8    16   am
    50     8     9    2
    51    31    29   ar
    52    27    26    2
    53    99   100    1
    54    69    70    2
    55    69    71   am
    56    32    26   am
    57    16    17    1
    58    28    29    1
    59    28    25    1
    60    22    20    1
    61    34    37   am
    62    26    25    1
    63     3     2    1
    64     3     4    2
    65    18    17    1
    66    18    24   am
    67     2     5    1
    68     2     1    1
    69    29    30   ar
    70    25    24    1
    71    17    20    1
    72   100   104   am
    73   100   101    2
    74    20    21    1
    75    37    38    1
    76   104   105    1
    77    38    39    1
    78    21    23    1
    79   115   114    1
    80   113   114    1
    81   113   110    1
    82   105   108    1
    83   105   106    1
    84   109   106   am
    85   109   110    1
    86    39    41   am
    87    39    40    2
    88    41    42    1
    89   106   107    2
    90   114   116    1
    91   110   111    1
    92   111   112    2
    93    42    45    1
    94    42    43    1
    95    45    46    1
    96    61    62    1
    97    61    63    1
    98    61    58    1
    99    47    46    1
   100    47    48    1
   101    43    50   am
   102    43    44    2
   103    50    51    1
   104    59    58    1
   105    59    60    2
   106    58    57    1
   107    57    52   am
   108    49    48    1
   109    51    52    1
   110    51    54    1
   111    52    53    2
   112    54    55    1
   113    54    56    1
