@<TRIPOS>MOLECULE
tmp/2bm2C01.pdb
 146 146 0 0 0
SMALL
GASTEIGER

@<TRIPOS>ATOM
      1  N         40.3010   70.1510   83.7260 N.3    44  HIS44      -0.1241
      2  CA        39.4300   71.3260   83.8010 C.3    44  HIS44       0.1621
      3  C         40.1400   72.6070   83.3920 C.2    44  HIS44       0.2264
      4  O         39.4980   73.6370   83.1820 O.2    44  HIS44      -0.2867
      5  CB        38.7650   71.4830   85.1880 C.3    44  HIS44       0.0745
      6  CG        39.6450   72.0880   86.2350 C.ar   44  HIS44       0.0817
      7  ND1       39.8370   73.4500   86.3490 N.ar   44  HIS44      -0.2268
      8  CD2       40.3770   71.5240   87.2230 C.ar   44  HIS44       0.1154
      9  CE1       40.6510   73.6960   87.3600 C.ar   44  HIS44       0.1986
     10  NE2       40.9920   72.5460   87.9080 N.ar   44  HIS44      -0.2212
     11  N         34.2600   67.4900   90.0740 N.3    87  GLN87      -0.1245
     12  CA        33.5990   66.8000   91.1740 C.3    87  GLN87       0.1566
     13  C         33.2260   65.4050   90.7080 C.2    87  GLN87       0.2260
     14  O         33.1470   64.4750   91.5020 O.2    87  GLN87      -0.2867
     15  CB        32.3650   67.5630   91.6500 C.3    87  GLN87       0.0367
     16  CG        32.7350   68.8340   92.3770 C.3    87  GLN87       0.0905
     17  CD        33.2310   69.8730   91.4040 C.2    87  GLN87       0.2608
     18  OE1       32.7380   69.9520   90.2820 O.2    87  GLN87      -0.2717
     19  NE2       34.2330   70.6640   91.8140 N.am   87  GLN87      -0.0878
     20  N         47.5210   75.3450  101.7540 N.3   188  ASP188     -0.1225
     21  CA        46.6490   74.7850  100.7370 C.3   188  ASP188      0.1805
     22  C         47.0030   75.3260   99.3580 C.2   188  ASP188      0.2598
     23  O         47.7750   76.2590   99.2150 O.2   188  ASP188     -0.2718
     24  CB        45.1900   75.1850  101.0680 C.3   188  ASP188      0.1424
     25  CG        44.1480   74.3230  100.3560 C.2   188  ASP188      0.3668
     26  OD1       42.9570   74.4520  100.6840 O.co2 188  ASP188     -0.2456
     27  OD2       44.4940   73.5190   99.4710 O.co2 188  ASP188     -0.2456
     28  N         46.4190   74.7300   98.3310 N.am  189  SER189     -0.1938
     29  CA        46.6230   75.2100   96.9690 C.3   189  SER189      0.2055
     30  C         45.3880   76.0690   96.6960 C.2   189  SER189      0.2643
     31  O         44.4340   76.0820   97.5040 O.2   189  SER189     -0.2714
     32  CB        46.6810   74.0330   96.0010 C.3   189  SER189      0.2130
     33  OG        45.7000   73.0680   96.3060 O.3   189  SER189     -0.2179
     34  N         45.3830   76.7790   95.5780 N.am  190  CYS190     -0.1953
     35  CA        44.2410   77.6230   95.2670 C.3   190  CYS190      0.1843
     36  C         44.0830   77.8950   93.7620 C.2   190  CYS190      0.2625
     37  O         44.9120   77.4930   92.9670 O.2   190  CYS190     -0.2714
     38  CB        44.3650   78.9300   96.0660 C.3   190  CYS190      0.0997
     39  SG        42.7930   79.8260   96.4210 S.3   190  CYS190     -0.0797
     40  N         43.0000   78.5720   93.3820 N.am  191  GLN191     -0.1977
     41  CA        42.7490   78.8990   91.9770 C.3   191  GLN191      0.1601
     42  C         44.0370   79.4410   91.3760 C.2   191  GLN191      0.2287
     43  O         44.7410   80.2440   91.9960 O.2   191  GLN191     -0.2864
     44  CB        41.6110   79.9400   91.8610 C.3   191  GLN191      0.0394
     45  CG        41.7420   80.9490   90.7170 C.3   191  GLN191      0.0908
     46  CD        40.5080   81.8590   90.5650 C.2   191  GLN191      0.2608
     47  OE1       40.5450   83.0560   90.8960 O.2   191  GLN191     -0.2717
     48  NE2       39.4150   81.2900   90.0590 N.am  191  GLN191     -0.0878
     49  N         45.7130   75.0850   90.0070 N.3   194  SER194     -0.1217
     50  CA        45.1010   73.9400   89.3240 C.3   194  SER194      0.1889
     51  C         46.0590   73.3750   88.2760 C.2   194  SER194      0.2288
     52  O         46.7570   74.1390   87.6120 O.2   194  SER194     -0.2866
     53  CB        43.8090   74.3730   88.5960 C.3   194  SER194      0.2089
     54  OG        42.7480   74.6940   89.4850 O.3   194  SER194     -0.2183
     55  N         46.8230   69.3370   91.2180 N.3   212  VAL212     -0.1231
     56  CA        45.9280   70.2830   91.9150 C.3   212  VAL212      0.1692
     57  C         44.6120   70.2810   91.1420 C.2   212  VAL212      0.2593
     58  O         44.6340   70.5540   89.9600 O.2   212  VAL212     -0.2718
     59  CB        46.5260   71.6970   91.9100 C.3   212  VAL212      0.0266
     60  CG1       45.5220   72.7170   92.5660 C.3   212  VAL212      0.0020
     61  CG2       47.8940   71.6710   92.6100 C.3   212  VAL212      0.0020
     62  N         43.4920   69.9570   91.7970 N.am  213  SER213     -0.1938
     63  CA        42.2060   69.8870   91.1030 C.3   213  SER213      0.2055
     64  C         41.0320   70.7290   91.6330 C.2   213  SER213      0.2643
     65  O         40.4560   71.5130   90.8770 O.2   213  SER213     -0.2714
     66  CB        41.7270   68.4260   90.9870 C.3   213  SER213      0.2130
     67  OG        40.4310   68.3450   90.3960 O.3   213  SER213     -0.2179
     68  N         40.6720   70.5780   92.9060 N.am  214  TRP214     -0.1959
     69  CA        39.5560   71.3380   93.4020 C.3   214  TRP214      0.1771
     70  C         39.3540   71.3010   94.9100 C.2   214  TRP214      0.2620
     71  O         40.1840   70.7800   95.6570 O.2   214  TRP214     -0.2715
     72  CB        38.2760   70.8650   92.6830 C.3   214  TRP214      0.0590
     73  CG        37.7650   69.5110   93.1400 C.ar  214  TRP214      0.0006
     74  CD1       38.1910   68.2700   92.7160 C.ar  214  TRP214      0.0946
     75  CD2       36.6770   69.2720   94.0420 C.ar  214  TRP214      0.0152
     76  NE1       37.4320   67.2890   93.2930 N.ar  214  TRP214     -0.2442
     77  CE2       36.4950   67.8720   94.1140 C.ar  214  TRP214      0.0810
     78  CE3       35.8360   70.1080   94.7970 C.ar  214  TRP214      0.0012
     79  CZ2       35.4980   67.2870   94.9150 C.ar  214  TRP214      0.0191
     80  CZ3       34.8500   69.5380   95.5890 C.ar  214  TRP214      0.0001
     81  CH2       34.6880   68.1340   95.6450 C.ar  214  TRP214      0.0015
     82  N         38.2360   71.8790   95.3390 N.am  215  GLY215     -0.1940
     83  CA        37.8890   71.9270   96.7470 C.3   215  GLY215      0.2014
     84  C         36.8340   72.9960   96.9960 C.2   215  GLY215      0.2639
     85  O         36.3670   73.6550   96.0670 O.2   215  GLY215     -0.2714
     86  N         36.4250   73.1510   98.2480 N.am  216  GLU216     -0.1963
     87  CA        35.4590   74.1900   98.5880 C.3   216  GLU216      0.1733
     88  C         36.3120   75.3040   99.1700 C.2   216  GLU216      0.2617
     89  O         36.7970   75.2070  100.2950 O.2   216  GLU216     -0.2715
     90  CB        34.4520   73.6810   99.6150 C.3   216  GLU216      0.0429
     91  CG        33.4190   72.7670   98.9890 C.3   216  GLU216      0.1163
     92  CD        32.4560   72.1600  100.0040 C.2   216  GLU216      0.3649
     93  OE1       31.9060   71.0860   99.6920 O.co2 216  GLU216     -0.2457
     94  OE2       32.2470   72.7470  101.0910 O.co2 216  GLU216     -0.2457
     95  N         36.5200   76.3400   98.3620 N.am  217  GLY217     -0.1940
     96  CA        37.3350   77.4500   98.7800 C.3   217  GLY217      0.2014
     97  C         38.7720   76.9740   98.8840 C.2   217  GLY217      0.2639
     98  O         39.1620   75.9070   98.3450 O.2   217  GLY217     -0.2714
     99  N         39.5580   77.7770   99.5930 N.am  218  CYS218     -0.1967
    100  CA        40.9730   77.5040   99.7980 C.3   218  CYS218      0.1712
    101  C         41.2940   77.6410  101.2720 C.2   218  CYS218      0.2296
    102  O         41.0580   78.6960  101.8660 O.2   218  CYS218     -0.2864
    103  CB        41.8300   78.4980   99.0020 C.3   218  CYS218      0.0983
    104  SG        41.5530   78.4130   97.2090 S.3   218  CYS218     -0.0798
    105  N         37.7200   71.5510  105.1460 N.3   223  ARG223     -0.1231
    106  CA        37.7310   71.3780  103.6950 C.3   223  ARG223      0.1679
    107  C         39.1290   71.3690  103.0550 C.2   223  ARG223      0.2434
    108  O         39.5550   72.3480  102.4550 O.2   223  ARG223     -0.2733
    109  CB        36.8700   72.4590  103.0310 C.3   223  ARG223      0.0321
    110  CG        35.4210   72.4900  103.5020 C.3   223  ARG223      0.0489
    111  CD        34.6000   71.4190  102.8150 C.3   223  ARG223      0.2205
    112  NE        33.1870   71.5880  103.1210 N.pl3 223  ARG223     -0.0865
    113  CZ        32.5720   71.1680  104.2280 C.cat 223  ARG223      0.5346
    114  NH1       33.2340   70.5320  105.1940 N.pl3 223  ARG223      0.1354
    115  NH2       31.2640   71.3500  104.3440 N.pl3 223  ARG223      0.1354
    116  N         39.8580   70.2510  103.1880 N.am  224  PRO224     -0.2718
    117  CA        41.2000   70.1550  102.5990 C.3   224  PRO224      0.1535
    118  C         41.1880   70.1090  101.0660 C.2   224  PRO224      0.2599
    119  O         40.1660   69.7890  100.4330 O.2   224  PRO224     -0.2715
    120  CB        41.7760   68.8690  103.1920 C.3   224  PRO224      0.0310
    121  CG        40.8160   68.4560  104.2800 C.3   224  PRO224      0.0237
    122  CD        39.4910   69.0290  103.9240 C.3   224  PRO224      0.0939
    123  N         42.3350   70.4470  100.4820 N.am  225  GLY225     -0.1941
    124  CA        42.4800   70.4260   99.0420 C.3   225  GLY225      0.2014
    125  C         42.3120   69.0260   98.4900 C.2   225  GLY225      0.2639
    126  O         42.6890   68.0270   99.1070 O.2   225  GLY225     -0.2714
    127  N         41.7440   68.9490   97.3040 N.am  226  ILE226     -0.1963
    128  CA        41.5180   67.6820   96.6550 C.3   226  ILE226      0.1727
    129  C         42.3470   67.6230   95.3520 C.2   226  ILE226      0.2616
    130  O         42.3480   68.5700   94.5470 O.2   226  ILE226     -0.2715
    131  CB        39.9940   67.5210   96.3990 C.3   226  ILE226      0.0290
    132  CG1       39.2870   67.3410   97.7290 C.3   226  ILE226      0.0022
    133  CG2       39.6980   66.3330   95.5840 C.3   226  ILE226      0.0023
    134  CD1       37.7980   67.5900   97.6600 C.3   226  ILE226      0.0001
    135  N         43.0550   66.5140   95.1430 N.am  227  TYR227     -0.1974
    136  CA        43.8970   66.3580   93.9620 C.3   227  TYR227      0.1639
    137  C         43.5400   65.1190   93.2130 C.2   227  TYR227      0.2290
    138  O         42.9900   64.1930   93.7760 O.2   227  TYR227     -0.2864
    139  CB        45.3710   66.2360   94.3490 C.3   227  TYR227      0.0560
    140  CG        45.8930   67.3780   95.1740 C.ar  227  TYR227     -0.0198
    141  CD1       45.3800   67.6510   96.4250 C.ar  227  TYR227     -0.0009
    142  CD2       46.9070   68.1970   94.6840 C.ar  227  TYR227     -0.0009
    143  CE1       45.8640   68.7290   97.1720 C.ar  227  TYR227      0.0417
    144  CE2       47.3850   69.2530   95.4070 C.ar  227  TYR227      0.0417
    145  CZ        46.8720   69.5300   96.6480 C.ar  227  TYR227      0.1957
    146  OH        47.3690   70.6150   97.3400 O.3   227  TYR227     -0.2866
@<TRIPOS>BOND
     1     4     3    2
     2     3     2    1
     3     1     2    1
     4     2     5    1
     5     5     6    1
     6     6     7   ar
     7     6     8   ar
     8     7     9   ar
     9     8    10   ar
    10     9    10   ar
    11    52    51    2
    12    51    50    1
    13    53    50    1
    14    53    54    1
    15    50    49    1
    16    58    57    2
    17    48    46   am
    18    11    12    1
    19    18    17    2
    20    67    66    1
    21    46    45    1
    22    46    47    2
    23    13    12    1
    24    13    14    2
    25    45    44    1
    26    65    64    2
    27    66    63    1
    28    63    64    1
    29    63    62    1
    30    57    62   am
    31    57    56    1
    32    12    15    1
    33    55    56    1
    34    42    41    1
    35    42    43    2
    36    17    19   am
    37    17    16    1
    38    64    68   am
    39    15    16    1
    40    44    41    1
    41    59    56    1
    42    59    60    1
    43    59    61    1
    44    41    40    1
    45    72    73    1
    46    72    69    1
    47    74    73   ar
    48    74    76   ar
    49    68    69    1
    50    37    36    2
    51    73    75   ar
    52   137   138    2
    53   137   136    1
    54    76    77   ar
    55    40    36   am
    56    69    70    1
    57    36    35    1
    58   136   139    1
    59   136   135    1
    60    75    77   ar
    61    75    78   ar
    62    77    79   ar
    63   139   140    1
    64   130   129    2
    65   142   140   ar
    66   142   144   ar
    67    78    80   ar
    68    70    82   am
    69    70    71    2
    70    79    81   ar
    71   135   129   am
    72   140   141   ar
    73    35    34    1
    74    35    38    1
    75    82    83    1
    76   129   128    1
    77   144   145   ar
    78    34    30   am
    79   133   131    1
    80    80    81   ar
    81    32    33    1
    82    32    29    1
    83    38    39    1
    84    85    84    2
    85   131   128    1
    86   131   132    1
    87    39   104    1
    88   141   143   ar
    89   145   143   ar
    90   145   146    1
    91   128   127    1
    92    30    29    1
    93    30    31    2
    94    83    84    1
    95    29    28    1
    96    84    86   am
    97   104   103    1
    98   127   125   am
    99   134   132    1
   100    86    87    1
   101    28    22   am
   102    98    97    2
   103    95    96    1
   104    95    88   am
   105   125   124    1
   106   125   126    2
   107    87    88    1
   108    87    90    1
   109    96    97    1
   110    97    99   am
   111    91    90    1
   112    91    92    1
   113   103   100    1
   114   124   123    1
   115    88    89    2
   116    23    22    2
   117    22    21    1
   118    27    25   ar
   119    99   100    1
   120    93    92   ar
   121   100   101    1
   122    92    94   ar
   123    25    26   ar
   124    25    24    1
   125   119   118    2
   126   123   118   am
   127    21    24    1
   128    21    20    1
   129   118   117    1
   130   101   102    2
   131   108   107    2
   132   117   116    1
   133   117   120    1
   134   111   112    1
   135   111   110    1
   136   109   110    1
   137   109   106    1
   138   107   116   am
   139   107   106    1
   140   112   113    2
   141   116   122    1
   142   120   121    1
   143   106   105    1
   144   122   121    1
   145   113   115    1
   146   113   114    1
