@<TRIPOS>MOLECULE
tmp/2bmbA00.pdb
 151 136 0 0 0
SMALL
GASTEIGER

@<TRIPOS>ATOM
      1  N          6.8040   16.6500   48.2880 N.3   198  ILE198     -0.1245
      2  CA         7.6590   16.8550   49.4470 C.3   198  ILE198      0.1561
      3  C          8.9990   16.1620   49.2510 C.2   198  ILE198      0.2260
      4  O          9.0480   14.9860   48.8850 O.2   198  ILE198     -0.2867
      5  CB         6.9950   16.3230   50.7280 C.3   198  ILE198      0.0252
      6  CG1        5.6910   17.0900   50.9880 C.3   198  ILE198      0.0019
      7  CG2        7.9720   16.4090   51.9220 C.3   198  ILE198      0.0019
      8  CD1        4.7410   16.4080   51.9390 C.3   198  ILE198      0.0001
      9  N         12.2190   15.8550   51.8150 N.3   200  ASN200     -0.1240
     10  CA        12.9050   16.1610   53.0660 C.3   200  ASN200      0.1653
     11  C         14.3940   15.8340   52.9710 C.2   200  ASN200      0.2266
     12  O         14.7710   14.7110   52.6550 O.2   200  ASN200     -0.2867
     13  CB        12.2310   15.4580   54.2590 C.3   200  ASN200      0.1155
     14  CG        10.8320   16.0310   54.5660 C.2   200  ASN200      0.2627
     15  OD1       10.6360   17.2560   54.6180 O.2   200  ASN200     -0.2716
     16  ND2        9.8590   15.1420   54.7640 N.am  200  ASN200     -0.0877
     17  N          9.9010   20.5220   60.8410 N.3   246  THR246     -0.1203
     18  CA         8.8120   21.3950   61.2830 C.3   246  THR246      0.1994
     19  C          7.7750   20.6280   62.1070 C.2   246  THR246      0.2617
     20  O          6.6350   21.0690   62.2630 O.2   246  THR246     -0.2717
     21  CB         8.1180   22.0640   60.0800 C.3   246  THR246      0.1784
     22  OG1        7.8700   21.0720   59.0790 O.3   246  THR246     -0.2211
     23  CG2        8.9990   23.1680   59.4940 C.3   246  THR246      0.0376
     24  N          8.1860   19.4820   62.6380 N.am  247  ARG247     -0.1979
     25  CA         7.2960   18.6410   63.4150 C.3   247  ARG247      0.1597
     26  C          7.3200   19.0960   64.8700 C.2   247  ARG247      0.2287
     27  O          8.3900   19.3920   65.3960 O.2   247  ARG247     -0.2864
     28  CB         7.6910   17.1670   63.2650 C.3   247  ARG247      0.0334
     29  CG         7.6400   16.6870   61.8130 C.3   247  ARG247      0.0492
     30  CD         7.3070   15.2070   61.7010 C.3   247  ARG247      0.2205
     31  NE         6.6590   14.8900   60.4230 N.pl3 247  ARG247     -0.0865
     32  CZ         6.2080   13.6840   60.0780 C.cat 247  ARG247      0.5346
     33  NH1        6.3290   12.6540   60.9100 N.pl3 247  ARG247      0.1354
     34  NH2        5.6340   13.5050   58.8940 N.pl3 247  ARG247      0.1354
     35  N         11.2300   24.8960   51.4790 N.3   285  ASP285     -0.1239
     36  CA        10.5380   25.0110   52.7580 C.3   285  ASP285      0.1674
     37  C         11.5350   25.6110   53.7400 C.2   285  ASP285      0.2266
     38  O         12.4580   24.9310   54.1890 O.2   285  ASP285     -0.2867
     39  CB        10.0220   23.6360   53.2320 C.3   285  ASP285      0.1410
     40  CG         8.9420   23.7370   54.3320 C.2   285  ASP285      0.3668
     41  OD1        8.0150   24.5710   54.2030 O.co2 285  ASP285     -0.2456
     42  OD2        8.9960   22.9690   55.3260 O.co2 285  ASP285     -0.2456
     43  N          8.5440   28.7050   50.6950 N.3   304  ASN304     -0.1240
     44  CA         7.4470   28.1390   51.4780 C.3   304  ASN304      0.1653
     45  C          7.7550   28.2780   52.9630 C.2   304  ASN304      0.2266
     46  O          8.5480   27.5110   53.5270 O.2   304  ASN304     -0.2867
     47  CB         7.1950   26.6820   51.0780 C.3   304  ASN304      0.1155
     48  CG         6.1470   25.9980   51.9490 C.2   304  ASN304      0.2627
     49  OD1        5.2280   26.6360   52.4480 O.2   304  ASN304     -0.2716
     50  ND2        6.2910   24.6830   52.1360 N.am  304  ASN304     -0.0877
     51  N          6.4630   28.2090   56.6420 N.3   306  ILE306     -0.1245
     52  CA         5.4110   27.7190   57.5370 C.3   306  ILE306      0.1561
     53  C          5.0650   28.6830   58.6800 C.2   306  ILE306      0.2260
     54  O          4.0610   28.5070   59.3550 O.2   306  ILE306     -0.2867
     55  CB         5.6940   26.2780   58.0610 C.3   306  ILE306      0.0252
     56  CG1        7.0610   26.1790   58.7490 C.3   306  ILE306      0.0019
     57  CG2        5.6180   25.2800   56.9160 C.3   306  ILE306      0.0019
     58  CD1        7.0510   26.5070   60.2130 C.3   306  ILE306      0.0001
     59  N          4.7610   31.5650   50.0020 N.3   328  ILE328     -0.1245
     60  CA         3.6330   30.9020   50.6540 C.3   328  ILE328      0.1561
     61  C          3.5540   31.3920   52.0830 C.2   328  ILE328      0.2260
     62  O          4.4730   31.2050   52.8740 O.2   328  ILE328     -0.2867
     63  CB         3.6940   29.3640   50.5390 C.3   328  ILE328      0.0252
     64  CG1        3.7330   28.9840   49.0460 C.3   328  ILE328      0.0019
     65  CG2        2.4730   28.7110   51.2350 C.3   328  ILE328      0.0019
     66  CD1        4.0900   27.5520   48.7870 C.3   328  ILE328      0.0001
     67  N          1.9390   30.9000   55.3340 N.3   330  SER330     -0.1217
     68  CA         1.2360   29.8510   56.0420 C.3   330  SER330      0.1889
     69  C          0.8520   30.3050   57.4590 C.2   330  SER330      0.2288
     70  O          1.5720   31.1130   58.0830 O.2   330  SER330     -0.2866
     71  CB         2.0790   28.5820   56.0500 C.3   330  SER330      0.2089
     72  OG         1.2880   27.4630   56.4000 O.3   330  SER330     -0.2183
     73  N         -1.8970   29.3330   53.0870 N.3   404  ASP404     -0.1239
     74  CA        -2.0010   27.9790   53.5880 C.3   404  ASP404      0.1674
     75  C         -2.4660   28.0950   55.0430 C.2   404  ASP404      0.2266
     76  O         -1.7990   28.7330   55.8650 O.2   404  ASP404     -0.2867
     77  CB        -0.6230   27.2840   53.5000 C.3   404  ASP404      0.1410
     78  CG        -0.6670   25.8020   53.8850 C.2   404  ASP404      0.3668
     79  OD1       -1.5610   25.3610   54.6440 O.co2 404  ASP404     -0.2456
     80  OD2        0.2140   25.0600   53.4210 O.co2 404  ASP404     -0.2456
     81  N         -2.3280   26.0090   57.2590 N.3   406  GLY406     -0.1210
     82  CA        -1.3530   25.3430   58.1180 C.3   406  GLY406      0.1956
     83  C         -1.9350   24.2180   58.9460 C.2   406  GLY406      0.2611
     84  O         -2.0120   24.3190   60.1840 O.2   406  GLY406     -0.2717
     85  N         -2.3600   23.1490   58.2690 N.am  407  LEU407     -0.1979
     86  CA        -2.8630   21.9580   58.9720 C.3   407  LEU407      0.1596
     87  C         -1.8060   21.4230   59.9280 C.2   407  LEU407      0.2287
     88  O         -0.6480   21.2880   59.5580 O.2   407  LEU407     -0.2864
     89  CB        -3.3090   20.8800   57.9890 C.3   407  LEU407      0.0297
     90  CG        -4.4310   21.3050   57.0090 C.3   407  LEU407      0.0022
     91  CD1       -4.8190   20.1580   56.0730 C.3   407  LEU407      0.0001
     92  CD2       -5.6620   21.8180   57.7450 C.3   407  LEU407      0.0001
     93  N         -0.4940   22.9310   62.5070 N.3   409  PHE409     -0.1241
     94  CA         0.3230   23.9660   63.1510 C.3   409  PHE409      0.1605
     95  C         -0.5490   24.7410   64.1200 C.2   409  PHE409      0.2264
     96  O         -1.3920   25.5480   63.7060 O.2   409  PHE409     -0.2867
     97  CB         0.9940   24.8920   62.1060 C.3   409  PHE409      0.0534
     98  CG         2.0480   24.1980   61.2680 C.ar  409  PHE409     -0.0203
     99  CD1        3.3730   24.1380   61.6980 C.ar  409  PHE409     -0.0042
    100  CD2        1.7140   23.5930   60.0590 C.ar  409  PHE409     -0.0042
    101  CE1        4.3570   23.4880   60.9320 C.ar  409  PHE409     -0.0003
    102  CE2        2.6860   22.9420   59.2840 C.ar  409  PHE409     -0.0003
    103  CZ         4.0140   22.8890   59.7250 C.ar  409  PHE409     -0.0000
    104  N         -3.0490   26.6260   49.4190 N.3   450  LEU450     -0.1245
    105  CA        -2.2710   25.3980   49.5120 C.3   450  LEU450      0.1561
    106  C         -2.7040   24.6690   50.7810 C.2   450  LEU450      0.2260
    107  O         -2.8480   25.2920   51.8350 O.2   450  LEU450     -0.2867
    108  CB        -0.7480   25.6920   49.5450 C.3   450  LEU450      0.0270
    109  CG         0.2180   24.5440   49.9290 C.3   450  LEU450      0.0019
    110  CD1        0.2420   23.4200   48.8940 C.3   450  LEU450      0.0001
    111  CD2        1.6490   25.0100   50.1850 C.3   450  LEU450      0.0001
    112  N         -1.5280   21.0910   53.0350 N.3   452  GLY452     -0.1225
    113  CA        -0.6240   19.9710   53.2150 C.3   452  GLY452      0.1811
    114  C         -1.1790   18.9510   54.1970 C.2   452  GLY452      0.2280
    115  O         -0.8530   18.9950   55.3820 O.2   452  GLY452     -0.2866
    116  N         -0.7690   15.6120   53.9180 N.3   454  SER454     -0.1217
    117  CA        -0.1180   14.3200   53.7170 C.3   454  SER454      0.1889
    118  C          0.4800   13.7290   54.9960 C.2   454  SER454      0.2288
    119  O          1.2320   14.3980   55.7160 O.2   454  SER454     -0.2866
    120  CB         0.9360   14.4050   52.6110 C.3   454  SER454      0.2089
    121  OG         1.3760   13.1080   52.2280 O.3   454  SER454     -0.2183
    122  N         -0.3720   13.3980   57.8550 N.3   456  LYS456     -0.1245
    123  CA        -0.5380   14.1040   59.1290 C.3   456  LYS456      0.1561
    124  C         -1.1980   13.2410   60.2160 C.2   456  LYS456      0.2260
    125  O         -1.9640   12.3040   59.9100 O.2   456  LYS456     -0.2867
    126  CB        -1.2640   15.4450   58.9510 C.3   456  LYS456      0.0271
    127  CG        -0.4430   16.4790   58.1700 C.3   456  LYS456      0.0035
    128  CD        -0.3670   17.8230   58.8700 C.3   456  LYS456      0.0206
    129  CE         0.9280   18.5390   58.4930 C.3   456  LYS456      0.1093
    130  NZ         0.7680   19.5870   57.4280 N.3   456  LYS456     -0.1314
    131  N          0.2180   19.6450   48.9490 N.3   491  ARG491     -0.1245
    132  CA         1.5500   19.2020   49.2920 C.3   491  ARG491      0.1563
    133  C          1.4760   17.7210   49.7110 C.2   491  ARG491      0.2260
    134  O          0.7910   17.3880   50.6760 O.2   491  ARG491     -0.2867
    135  CB         2.0690   20.1010   50.4140 C.3   491  ARG491      0.0307
    136  CG         3.5180   19.9430   50.7350 C.3   491  ARG491      0.0489
    137  CD         3.9490   20.9780   51.7510 C.3   491  ARG491      0.2205
    138  NE         5.3630   20.8390   52.0760 N.pl3 491  ARG491     -0.0865
    139  CZ         5.8430   20.0060   52.9990 C.cat 491  ARG491      0.5346
    140  NH1        5.0180   19.2250   53.6860 N.pl3 491  ARG491      0.1354
    141  NH2        7.1540   19.9480   53.2330 N.pl3 491  ARG491      0.1354
    142  N          3.3920   13.4800   49.9240 N.3   493  HIS493     -0.1241
    143  CA         4.5540   12.5930   50.0050 C.3   493  HIS493      0.1621
    144  C          4.5330   11.5280   48.8990 C.2   493  HIS493      0.2264
    145  O          5.4920   11.3860   48.1410 O.2   493  HIS493     -0.2867
    146  CB         4.6090   11.8690   51.3530 C.3   493  HIS493      0.0745
    147  CG         4.9280   12.7460   52.5230 C.ar  493  HIS493      0.0817
    148  ND1        3.9510   13.2970   53.3260 N.ar  493  HIS493     -0.2268
    149  CD2        6.1150   13.1160   53.0650 C.ar  493  HIS493      0.1154
    150  CE1        4.5210   13.9880   54.2990 C.ar  493  HIS493      0.1986
    151  NE2        5.8330   13.8960   54.1610 N.ar  493  HIS493     -0.2212
@<TRIPOS>BOND
     1   145   144    2
     2     1     2    1
     3    66    64    1
     4     4     3    2
     5   110   109    1
     6   144   143    1
     7   131   132    1
     8    64    63    1
     9     3     2    1
    10   132   133    1
    11   132   135    1
    12   104   105    1
    13     2     5    1
    14   105   108    1
    15   105   106    1
    16   108   109    1
    17   133   134    2
    18   142   143    1
    19   109   111    1
    20    59    60    1
    21   143   146    1
    22   135   136    1
    23    63    60    1
    24    63    65    1
    25    60    61    1
    26    43    44    1
    27     5     6    1
    28     5     7    1
    29   136   137    1
    30   106   107    2
    31     6     8    1
    32    47    44    1
    33    47    48    1
    34   146   147    1
    35    44    45    1
    36    35    36    1
    37   137   138    1
    38     9    10    1
    39    48    50   am
    40    48    49    2
    41   138   139    2
    42    61    62    2
    43   121   120    1
    44   147   149   ar
    45   147   148   ar
    46   120   117    1
    47    12    11    2
    48    36    39    1
    49    36    37    1
    50    45    46    2
    51    11    10    1
    52   139   141    1
    53   139   140    1
    54   112   113    1
    55   149   151   ar
    56    10    13    1
    57    73    74    1
    58   113   114    1
    59    39    40    1
    60   148   150   ar
    61    80    78   ar
    62    77    74    1
    63    77    78    1
    64    74    75    1
    65   117   116    1
    66   117   118    1
    67    37    38    2
    68    78    79   ar
    69   151   150   ar
    70   114   115    2
    71    41    40   ar
    72    13    14    1
    73    40    42   ar
    74    14    15    2
    75    14    16   am
    76   118   119    2
    77    75    76    2
    78    67    68    1
    79    68    71    1
    80    68    69    1
    81    71    72    1
    82    91    90    1
    83    51    52    1
    84    57    55    1
    85    90    92    1
    86    90    89    1
    87    81    82    1
    88   130   129    1
    89    69    70    2
    90    52    55    1
    91    52    53    1
    92   122   123    1
    93    89    86    1
    94    55    56    1
    95    82    83    1
    96   127   128    1
    97   127   126    1
    98    85    83   am
    99    85    86    1
   100   129   128    1
   101    53    54    2
   102    56    58    1
   103    34    32    1
   104    83    84    2
   105   126   123    1
   106    86    87    1
   107    22    21    1
   108   123   124    1
   109   102   103   ar
   110   102   100   ar
   111    23    21    1
   112    88    87    2
   113   103   101   ar
   114   125   124    2
   115   100    98   ar
   116    32    31    2
   117    32    33    1
   118    21    18    1
   119    31    30    1
   120    17    18    1
   121   101    99   ar
   122    98    99   ar
   123    98    97    1
   124    18    19    1
   125    30    29    1
   126    29    28    1
   127    97    94    1
   128    19    20    2
   129    19    24   am
   130    93    94    1
   131    24    25    1
   132    94    95    1
   133    28    25    1
   134    25    26    1
   135    96    95    2
   136    26    27    2
