@<TRIPOS>MOLECULE
tmp/2bmbA01.pdb
 135 131 0 0 0
SMALL
GASTEIGER

@<TRIPOS>ATOM
      1  N         -2.8960   47.9540   32.5660 N.3    10  GLY10      -0.1225
      2  CA        -3.0380   46.8930   31.5740 C.3    10  GLY10       0.1811
      3  C         -1.9320   46.9320   30.5350 C.2    10  GLY10       0.2280
      4  O         -1.4170   47.9980   30.1970 O.2    10  GLY10      -0.2866
      5  N         -6.6760   38.4510   30.9730 N.3    44  SER44      -0.1202
      6  CA        -8.0160   38.5040   30.3970 C.3    44  SER44       0.2020
      7  C         -7.9970   38.4850   28.8740 C.2    44  SER44       0.2619
      8  O         -7.0300   38.9290   28.2310 O.2    44  SER44      -0.2717
      9  CB        -8.7300   39.7610   30.8670 C.3    44  SER44       0.2103
     10  OG        -7.9290   40.8840   30.5830 O.3    44  SER44      -0.2182
     11  N         -9.0850   37.9680   28.3150 N.am   45  GLU45      -0.1965
     12  CA        -9.3370   38.0050   26.8890 C.3    45  GLU45       0.1718
     13  C         -9.4810   39.4670   26.4210 C.2    45  GLU45       0.2458
     14  O        -10.1730   40.2560   27.0660 O.2    45  GLU45      -0.2730
     15  CB       -10.6220   37.2350   26.6150 C.3    45  GLU45       0.0428
     16  CG       -10.8280   36.8350   25.1750 C.3    45  GLU45       0.1163
     17  CD       -12.1380   36.1090   24.9830 C.2    45  GLU45       0.3649
     18  OE1      -12.1950   34.9030   25.3080 O.co2  45  GLU45      -0.2457
     19  OE2      -13.1060   36.7510   24.5180 O.co2  45  GLU45      -0.2457
     20  N         -8.8260   39.8380   25.3040 N.am   46  PRO46      -0.2716
     21  CA        -9.0140   41.2030   24.8120 C.3    46  PRO46       0.1536
     22  C        -10.5060   41.5070   24.6410 C.2    46  PRO46       0.2598
     23  O        -11.2320   40.7550   23.9760 O.2    46  PRO46      -0.2715
     24  CB        -8.3210   41.1850   23.4490 C.3    46  PRO46       0.0310
     25  CG        -7.3590   40.0870   23.5240 C.3    46  PRO46       0.0237
     26  CD        -7.9140   39.0610   24.4430 C.3    46  PRO46       0.0939
     27  N        -10.9590   42.5910   25.2530 N.am   47  MET47      -0.1964
     28  CA       -12.3680   42.9470   25.1960 C.3    47  MET47       0.1736
     29  C        -12.8310   43.3770   23.7920 C.2    47  MET47       0.2616
     30  O        -13.9100   42.9820   23.3400 O.2    47  MET47      -0.2715
     31  CB       -12.6720   44.0340   26.2250 C.3    47  MET47       0.0427
     32  CG       -14.0460   44.6550   26.0750 C.3    47  MET47       0.0599
     33  SD       -14.3920   45.7640   27.4340 S.3    47  MET47      -0.1393
     34  CE       -15.3330   44.6880   28.5150 C.3    47  MET47       0.0692
     35  N        -12.0170   44.1720   23.1060 N.am   48  TYR48      -0.1960
     36  CA       -12.4460   44.7880   21.8440 C.3    48  TYR48       0.1771
     37  C        -12.0080   43.9990   20.6290 C.2    48  TYR48       0.2619
     38  O        -12.7780   43.8430   19.6920 O.2    48  TYR48      -0.2715
     39  CB       -11.9550   46.2470   21.7420 C.3    48  TYR48       0.0574
     40  CG       -12.6200   47.1480   22.7450 C.ar   48  TYR48      -0.0198
     41  CD1      -12.1570   47.2090   24.0650 C.ar   48  TYR48      -0.0009
     42  CD2      -13.7380   47.9110   22.3980 C.ar   48  TYR48      -0.0009
     43  CE1      -12.7800   48.0160   25.0120 C.ar   48  TYR48       0.0417
     44  CE2      -14.3720   48.7280   23.3390 C.ar   48  TYR48       0.0417
     45  CZ       -13.8820   48.7730   24.6430 C.ar   48  TYR48       0.1957
     46  OH       -14.4880   49.5630   25.5890 O.3    48  TYR48      -0.2866
     47  N        -10.7680   43.5130   20.6420 N.am   49  PHE49      -0.1974
     48  CA       -10.1640   42.9380   19.4310 C.3    49  PHE49       0.1639
     49  C         -9.5740   41.5720   19.7260 C.2    49  PHE49       0.2290
     50  O         -8.4810   41.4680   20.2750 O.2    49  PHE49      -0.2864
     51  CB        -9.1130   43.8950   18.8560 C.3    49  PHE49       0.0560
     52  CG        -9.6160   45.3060   18.6820 C.ar   49  PHE49      -0.0200
     53  CD1      -10.6130   45.5970   17.7440 C.ar   49  PHE49      -0.0042
     54  CD2       -9.1130   46.3440   19.4620 C.ar   49  PHE49      -0.0042
     55  CE1      -11.1020   46.9050   17.5810 C.ar   49  PHE49      -0.0003
     56  CE2       -9.6010   47.6550   19.3070 C.ar   49  PHE49      -0.0003
     57  CZ       -10.5960   47.9280   18.3630 C.ar   49  PHE49      -0.0000
     58  N         -4.5990   40.3900   27.6300 N.3    55  PHE55      -0.1241
     59  CA        -4.1320   41.4490   28.5000 C.3    55  PHE55       0.1605
     60  C         -3.7230   40.9500   29.8830 C.2    55  PHE55       0.2264
     61  O         -4.3000   40.0080   30.4150 O.2    55  PHE55      -0.2867
     62  CB        -5.2170   42.5130   28.6410 C.3    55  PHE55       0.0534
     63  CG        -5.2690   43.4850   27.4910 C.ar   55  PHE55      -0.0203
     64  CD1       -5.9460   43.1600   26.3160 C.ar   55  PHE55      -0.0042
     65  CD2       -4.6450   44.7270   27.5880 C.ar   55  PHE55      -0.0042
     66  CE1       -6.0060   44.0530   25.2510 C.ar   55  PHE55      -0.0003
     67  CE2       -4.6970   45.6340   26.5320 C.ar   55  PHE55      -0.0003
     68  CZ        -5.3870   45.2970   25.3590 C.ar   55  PHE55      -0.0000
     69  N         -3.7910   42.5450   33.5610 N.3    57  ASN57      -0.1240
     70  CA        -4.5480   43.6450   34.1730 C.3    57  ASN57       0.1653
     71  C         -4.4580   43.6060   35.6870 C.2    57  ASN57       0.2266
     72  O         -4.2840   42.5420   36.2830 O.2    57  ASN57      -0.2867
     73  CB        -6.0430   43.5810   33.8000 C.3    57  ASN57       0.1155
     74  CG        -6.3340   44.0350   32.3600 C.2    57  ASN57       0.2627
     75  OD1       -6.7650   43.2330   31.5430 O.2    57  ASN57      -0.2716
     76  ND2       -6.1620   45.3330   32.0730 N.am   57  ASN57      -0.0877
     77  N         -1.3400   50.8980   29.8020 N.3    88  ASP88      -0.1239
     78  CA        -2.4680   51.7760   30.0620 C.3    88  ASP88       0.1674
     79  C         -2.5940   51.9930   31.5620 C.2    88  ASP88       0.2266
     80  O         -2.5440   51.0390   32.3450 O.2    88  ASP88      -0.2867
     81  CB        -3.7560   51.1760   29.5040 C.3    88  ASP88       0.1410
     82  CG        -3.7320   51.0600   27.9930 C.2    88  ASP88       0.3668
     83  OD1       -3.6810   52.1080   27.3170 O.co2  88  ASP88      -0.2456
     84  OD2       -3.7610   49.9210   27.4800 O.co2  88  ASP88      -0.2456
     85  N         -5.2100   54.1270   33.8790 N.3    90  ASP90      -0.1239
     86  CA        -6.4290   54.9300   33.9820 C.3    90  ASP90       0.1674
     87  C         -6.7630   55.2070   35.4340 C.2    90  ASP90       0.2266
     88  O         -6.5590   54.3420   36.2870 O.2    90  ASP90      -0.2867
     89  CB        -7.6190   54.1760   33.3720 C.3    90  ASP90       0.1410
     90  CG        -7.4880   53.9630   31.8670 C.2    90  ASP90       0.3668
     91  OD1       -7.0800   54.9030   31.1430 O.co2  90  ASP90      -0.2456
     92  OD2       -7.8170   52.8460   31.4070 O.co2  90  ASP90      -0.2456
     93  N        -14.2740   56.2700   36.2320 N.3   113  HIS113     -0.1241
     94  CA       -14.0280   55.9190   34.8410 C.3   113  HIS113      0.1621
     95  C        -15.3230   55.4140   34.2070 C.2   113  HIS113      0.2264
     96  O        -15.9500   54.4870   34.7310 O.2   113  HIS113     -0.2867
     97  CB       -12.9300   54.8590   34.7230 C.3   113  HIS113      0.0745
     98  CG       -12.4090   54.7040   33.3320 C.ar  113  HIS113      0.0817
     99  ND1      -13.1010   54.0280   32.3480 N.ar  113  HIS113     -0.2268
    100  CD2      -11.2890   55.1860   32.7420 C.ar  113  HIS113      0.1154
    101  CE1      -12.4160   54.0790   31.2190 C.ar  113  HIS113      0.1986
    102  NE2      -11.3150   54.7790   31.4290 N.ar  113  HIS113     -0.2212
    103  N        -16.1630   53.4910   31.8460 N.3   115  ARG115     -0.1245
    104  CA       -16.2380   52.1220   31.3190 C.3   115  ARG115      0.1563
    105  C        -16.1170   51.0210   32.3770 C.2   115  ARG115      0.2260
    106  O        -16.2540   49.8300   32.0530 O.2   115  ARG115     -0.2867
    107  CB       -15.1310   51.9080   30.2790 C.3   115  ARG115      0.0307
    108  CG       -15.0830   52.9480   29.1450 C.3   115  ARG115      0.0489
    109  CD       -16.0230   52.5960   27.9900 C.3   115  ARG115      0.2205
    110  NE       -17.4250   52.6940   28.3820 N.pl3 115  ARG115     -0.0865
    111  CZ       -18.1330   53.8160   28.3340 C.cat 115  ARG115      0.5346
    112  NH1      -17.5770   54.9430   27.8970 N.pl3 115  ARG115      0.1354
    113  NH2      -19.3970   53.8090   28.7110 N.pl3 115  ARG115      0.1354
    114  N        -16.3450   46.0770   32.7860 N.3   119  ARG119     -0.1245
    115  CA       -15.0730   45.3380   32.6670 C.3   119  ARG119      0.1563
    116  C        -14.6960   44.5070   33.8990 C.2   119  ARG119      0.2260
    117  O        -14.2850   45.0550   34.9240 O.2   119  ARG119     -0.2867
    118  CB       -13.9360   46.3250   32.3490 C.3   119  ARG119      0.0307
    119  CG       -14.2150   47.1850   31.1200 C.3   119  ARG119      0.0489
    120  CD       -13.2550   48.3430   30.9840 C.3   119  ARG119      0.2205
    121  NE       -13.3990   48.9610   29.6710 N.pl3 119  ARG119     -0.0865
    122  CZ       -12.5390   49.8270   29.1360 C.cat 119  ARG119      0.5346
    123  NH1      -11.4410   50.1820   29.7940 N.pl3 119  ARG119      0.1354
    124  NH2      -12.7750   50.3290   27.9310 N.pl3 119  ARG119      0.1354
    125  N        -12.1500   42.8530   34.2380 N.3   121  PHE121     -0.1241
    126  CA       -10.7150   43.0330   34.4260 C.3   121  PHE121      0.1605
    127  C        -10.3780   44.3560   35.1370 C.2   121  PHE121      0.2264
    128  O         -9.2310   44.5740   35.5020 O.2   121  PHE121     -0.2867
    129  CB        -9.9380   42.8680   33.1070 C.3   121  PHE121      0.0534
    130  CG       -10.3030   43.8710   32.0390 C.ar  121  PHE121     -0.0203
    131  CD1       -9.7230   45.1440   32.0250 C.ar  121  PHE121     -0.0042
    132  CD2      -11.1970   43.5310   31.0290 C.ar  121  PHE121     -0.0042
    133  CE1      -10.0540   46.0730   31.0400 C.ar  121  PHE121     -0.0003
    134  CE2      -11.5310   44.4480   30.0320 C.ar  121  PHE121     -0.0003
    135  CZ       -10.9600   45.7230   30.0320 C.ar  121  PHE121     -0.0000
@<TRIPOS>BOND
     1    55    53   ar
     2    55    57   ar
     3    53    52   ar
     4    57    56   ar
     5    52    51    1
     6    52    54   ar
     7    51    48    1
     8    56    54   ar
     9    48    49    1
    10    48    47    1
    11    38    37    2
    12    49    50    2
    13    37    47   am
    14    37    36    1
    15    39    36    1
    16    39    40    1
    17    36    35    1
    18    42    40   ar
    19    42    44   ar
    20    40    41   ar
    21    35    29   am
    22    44    45   ar
    23    30    29    2
    24    24    25    1
    25    24    21    1
    26    25    26    1
    27    29    28    1
    28    23    22    2
    29    41    43   ar
    30    26    20    1
    31    19    17   ar
    32    22    21    1
    33    22    27   am
    34    45    43   ar
    35    45    46    1
    36    21    20    1
    37    17    16    1
    38    17    18   ar
    39    16    15    1
    40    28    27    1
    41    28    31    1
    42    66    68   ar
    43    66    64   ar
    44    20    13   am
    45    68    67   ar
    46    32    31    1
    47    32    33    1
    48    64    63   ar
    49    13    12    1
    50    13    14    2
    51    67    65   ar
    52    15    12    1
    53    12    11    1
    54    83    82   ar
    55    33    34    1
    56    84    82   ar
    57    63    65   ar
    58    63    62    1
    59    58    59    1
    60   112   111    1
    61   124   122    1
    62   109   110    1
    63   109   108    1
    64    82    81    1
    65     8     7    2
    66    11     7   am
    67   111   110    2
    68   111   113    1
    69    59    62    1
    70    59    60    1
    71     7     6    1
    72   122   121    2
    73   122   123    1
    74   108   107    1
    75    81    78    1
    76   121   120    1
    77    77    78    1
    78    60    61    2
    79   134   135   ar
    80   134   132   ar
    81   135   133   ar
    82    78    79    1
    83     4     3    2
    84   107   104    1
    85     6     9    1
    86     6     5    1
    87     3     2    1
    88    10     9    1
    89   120   119    1
    90   132   130   ar
    91   133   131   ar
    92   119   118    1
    93    91    90   ar
    94   101   102   ar
    95   101    99   ar
    96   104   103    1
    97   104   105    1
    98    92    90   ar
    99   102   100   ar
   100    75    74    2
   101    79    80    2
   102     2     1    1
   103    90    89    1
   104   131   130   ar
   105   130   129    1
   106   106   105    2
   107    76    74   am
   108    99    98   ar
   109   118   115    1
   110    74    73    1
   111   115   114    1
   112   115   116    1
   113   100    98   ar
   114   129   126    1
   115    98    97    1
   116    89    86    1
   117    69    70    1
   118    73    70    1
   119    85    86    1
   120   116   117    2
   121    86    87    1
   122    70    71    1
   123    95    96    2
   124    95    94    1
   125   125   126    1
   126   126   127    1
   127    97    94    1
   128    94    93    1
   129   127   128    2
   130    87    88    2
   131    71    72    2
