@<TRIPOS>MOLECULE
tmp/2bmcF00.pdb
 207 197 0 0 0
SMALL
GASTEIGER

@<TRIPOS>ATOM
      1  N        -65.2180   61.4080   18.8810 N.3    12  ARG12      -0.1245
      2  CA       -64.6920   60.1840   19.4650 C.3    12  ARG12       0.1563
      3  C        -63.4550   59.5640   18.8050 C.2    12  ARG12       0.2260
      4  O        -63.1810   59.7490   17.6160 O.2    12  ARG12      -0.2867
      5  CB       -65.8170   59.1410   19.5570 C.3    12  ARG12       0.0307
      6  CG       -66.4430   58.7540   18.2290 C.3    12  ARG12       0.0489
      7  CD       -67.6880   57.8970   18.4290 C.3    12  ARG12       0.2205
      8  NE       -68.2440   57.4400   17.1570 N.pl3  12  ARG12      -0.0865
      9  CZ       -67.7200   56.4670   16.4140 C.cat  12  ARG12       0.5346
     10  NH1      -66.6250   55.8330   16.8170 N.pl3  12  ARG12       0.1354
     11  NH2      -68.2830   56.1360   15.2580 N.pl3  12  ARG12       0.1354
     12  N        -61.0710   56.7550   17.1830 N.3    14  LEU14      -0.1231
     13  CA       -61.3690   55.6740   16.2650 C.3    14  LEU14       0.1693
     14  C        -60.3100   54.6010   16.3850 C.2    14  LEU14       0.2593
     15  O        -60.4910   53.4840   15.8980 O.2    14  LEU14      -0.2718
     16  CB       -61.4240   56.2010   14.8340 C.3    14  LEU14       0.0284
     17  CG       -62.6020   57.1280   14.5480 C.3    14  LEU14       0.0019
     18  CD1      -62.4630   57.6850   13.1410 C.3    14  LEU14       0.0001
     19  CD2      -63.9130   56.3600   14.7050 C.3    14  LEU14       0.0001
     20  N        -59.2030   54.9470   17.0360 N.am   15  GLY15      -0.1942
     21  CA       -58.1290   53.9940   17.2140 C.3    15  GLY15       0.2014
     22  C        -56.8200   54.6220   17.6510 C.2    15  GLY15       0.2639
     23  O        -56.5670   55.8070   17.4050 O.2    15  GLY15      -0.2714
     24  N        -55.9860   53.8160   18.3020 N.am   16  LYS16      -0.1963
     25  CA       -54.6890   54.2630   18.7810 C.3    16  LYS16       0.1728
     26  C        -53.6190   53.4280   18.0880 C.2    16  LYS16       0.2617
     27  O        -53.7780   52.2230   17.9200 O.2    16  LYS16      -0.2715
     28  CB       -54.5840   54.0730   20.2990 C.3    16  LYS16       0.0311
     29  CG       -55.7030   54.7140   21.1300 C.3    16  LYS16       0.0038
     30  CD       -55.8850   56.1910   20.8080 C.3    16  LYS16       0.0206
     31  CE       -56.7120   56.9200   21.8660 C.3    16  LYS16       0.1093
     32  NZ       -55.9120   57.2450   23.0810 N.3    16  LYS16      -0.1314
     33  N        -52.5320   54.0670   17.6790 N.am   17  GLY17      -0.1940
     34  CA       -51.4690   53.3430   17.0130 C.3    17  GLY17       0.2014
     35  C        -50.1180   53.5710   17.6670 C.2    17  GLY17       0.2638
     36  O        -50.0180   54.1930   18.7240 O.2    17  GLY17      -0.2714
     37  N        -49.0690   53.0630   17.0350 N.am   18  LYS18      -0.1977
     38  CA       -47.7220   53.2160   17.5600 C.3    18  LYS18       0.1596
     39  C        -47.2810   54.6730   17.4800 C.2    18  LYS18       0.2287
     40  O        -46.5960   55.1680   18.3680 O.2    18  LYS18      -0.2864
     41  CB       -46.7570   52.3390   16.7570 C.3    18  LYS18       0.0298
     42  CG       -45.2840   52.4890   17.1130 C.3    18  LYS18       0.0038
     43  CD       -44.4280   51.6050   16.2110 C.3    18  LYS18       0.0206
     44  CE       -42.9470   51.6980   16.5520 C.3    18  LYS18       0.1093
     45  NZ       -42.1180   50.8360   15.6580 N.3    18  LYS18      -0.1314
     46  N        -49.5560   57.3870   16.8490 N.3    20  GLY20      -0.1225
     47  CA       -50.5810   58.3690   17.1540 C.3    20  GLY20       0.1811
     48  C        -52.0030   57.8470   17.2210 C.2    20  GLY20       0.2280
     49  O        -52.2350   56.6370   17.1890 O.2    20  GLY20      -0.2866
     50  N        -56.3650   58.4080   16.0620 N.3    22  VAL22      -0.1245
     51  CA       -57.2770   58.8860   15.0320 C.3    22  VAL22       0.1561
     52  C        -58.6030   59.2410   15.6930 C.2    22  VAL22       0.2260
     53  O        -59.0900   58.5080   16.5460 O.2    22  VAL22      -0.2867
     54  CB       -57.5270   57.8170   13.9490 C.3    22  VAL22       0.0252
     55  CG1      -58.4360   58.3730   12.8770 C.3    22  VAL22       0.0019
     56  CG2      -56.2300   57.4030   13.3280 C.3    22  VAL22       0.0019
     57  N        -61.7380   61.9430    9.2330 N.3    35  ALA35      -0.1245
     58  CA       -60.9410   61.3930   10.3240 C.3    35  ALA35       0.1562
     59  C        -59.6660   62.2090   10.5130 C.2    35  ALA35       0.2260
     60  O        -58.9400   62.4740    9.5540 O.2    35  ALA35      -0.2867
     61  CB       -60.5930   59.9470   10.0320 C.3    35  ALA35       0.0290
     62  N        -56.0310   62.3160   12.0490 N.3    37  LYS37      -0.1245
     63  CA       -54.9880   61.4740   12.6100 C.3    37  LYS37       0.1561
     64  C        -53.8870   62.3340   13.2320 C.2    37  LYS37       0.2260
     65  O        -53.2720   63.1790   12.5670 O.2    37  LYS37      -0.2867
     66  CB       -54.4150   60.5630   11.5280 C.3    37  LYS37       0.0271
     67  CG       -53.6090   59.3950   12.0750 C.3    37  LYS37       0.0035
     68  CD       -53.1190   58.4930   10.9500 C.3    37  LYS37       0.0206
     69  CE       -52.5050   57.2300   11.5050 C.3    37  LYS37       0.1093
     70  NZ       -52.1130   56.3050   10.4200 N.3    37  LYS37      -0.1314
     71  N        -57.4120   55.5020    0.5160 N.3    69  LEU69      -0.1245
     72  CA       -57.9930   56.3980    1.5170 C.3    69  LEU69       0.1561
     73  C        -57.5350   57.8210    1.1960 C.2    69  LEU69       0.2260
     74  O        -56.3360   58.1030    1.0690 O.2    69  LEU69      -0.2867
     75  CB       -57.5550   55.9990    2.9260 C.3    69  LEU69       0.0270
     76  CG       -58.2830   56.7300    4.0640 C.3    69  LEU69       0.0019
     77  CD1      -59.7240   56.2300    4.1700 C.3    69  LEU69       0.0001
     78  CD2      -57.5480   56.4880    5.3790 C.3    69  LEU69       0.0001
     79  N        -57.8320   62.9170    7.0390 N.3    85  LEU85      -0.1231
     80  CA       -58.1590   61.7610    6.2280 C.3    85  LEU85       0.1693
     81  C        -59.6300   61.4650    5.9930 C.2    85  LEU85       0.2592
     82  O        -60.5170   61.9300    6.7080 O.2    85  LEU85      -0.2718
     83  CB       -57.5380   60.5240    6.8680 C.3    85  LEU85       0.0284
     84  CG       -56.0650   60.6370    7.2400 C.3    85  LEU85       0.0019
     85  CD1      -55.6660   59.4770    8.1590 C.3    85  LEU85       0.0001
     86  CD2      -55.2390   60.6620    5.9630 C.3    85  LEU85       0.0001
     87  N        -59.8700   60.6490    4.9780 N.am   86  GLU86      -0.1966
     88  CA       -61.2150   60.2130    4.6410 C.3    86  GLU86       0.1733
     89  C        -61.6720   59.3350    5.8130 C.2    86  GLU86       0.2616
     90  O        -60.8660   58.6340    6.4300 O.2    86  GLU86      -0.2715
     91  CB       -61.1670   59.3810    3.3530 C.3    86  GLU86       0.0429
     92  CG       -62.5080   58.8190    2.8880 C.3    86  GLU86       0.1163
     93  CD       -62.3870   57.8860    1.6720 C.2    86  GLU86       0.3649
     94  OE1      -61.4940   58.0990    0.8190 O.co2  86  GLU86      -0.2457
     95  OE2      -63.2060   56.9470    1.5670 O.co2  86  GLU86      -0.2457
     96  N        -62.9550   59.3900    6.1430 N.am   87  TYR87      -0.1960
     97  CA       -63.4740   58.5470    7.2180 C.3    87  TYR87       0.1771
     98  C        -64.0990   57.2810    6.5850 C.2    87  TYR87       0.2619
     99  O        -65.0080   57.3610    5.7510 O.2    87  TYR87      -0.2715
    100  CB       -64.5110   59.3170    8.0510 C.3    87  TYR87       0.0574
    101  CG       -65.3420   58.4430    8.9760 C.ar   87  TYR87      -0.0198
    102  CD1      -64.7410   57.6240    9.9330 C.ar   87  TYR87      -0.0009
    103  CD2      -66.7300   58.4330    8.8880 C.ar   87  TYR87      -0.0009
    104  CE1      -65.5050   56.8190   10.7750 C.ar   87  TYR87       0.0417
    105  CE2      -67.5060   57.6290    9.7250 C.ar   87  TYR87       0.0417
    106  CZ       -66.8920   56.8290   10.6600 C.ar   87  TYR87       0.1957
    107  OH       -67.6720   56.0270   11.4660 O.3    87  TYR87      -0.2866
    108  N        -63.5640   56.1250    6.9660 N.am   88  ALA88      -0.1964
    109  CA       -64.0140   54.8210    6.4910 C.3    88  ALA88       0.1713
    110  C        -64.8500   54.2380    7.6240 C.2    88  ALA88       0.2458
    111  O        -64.3030   53.6960    8.5770 O.2    88  ALA88      -0.2730
    112  CB       -62.8120   53.9380    6.2300 C.3    88  ALA88       0.0333
    113  N        -66.1850   54.3170    7.5200 N.am   89  PRO89      -0.2716
    114  CA       -67.1360   53.8260    8.5290 C.3    89  PRO89       0.1536
    115  C        -67.1940   52.3490    8.8550 C.2    89  PRO89       0.2598
    116  O        -67.7690   51.9610    9.8740 O.2    89  PRO89      -0.2715
    117  CB       -68.4760   54.3390    8.0190 C.3    89  PRO89       0.0310
    118  CG       -68.2970   54.2460    6.5400 C.3    89  PRO89       0.0237
    119  CD       -66.8910   54.7850    6.3160 C.3    89  PRO89       0.0939
    120  N        -66.6010   51.5010    8.0310 N.am   90  LEU90      -0.1964
    121  CA       -66.6910   50.0890    8.3500 C.3    90  LEU90       0.1728
    122  C        -65.4790   49.3550    8.9250 C.2    90  LEU90       0.2617
    123  O        -65.5010   48.1250    8.9980 O.2    90  LEU90      -0.2715
    124  CB       -67.2420   49.3290    7.1430 C.3    90  LEU90       0.0311
    125  CG       -68.7260   49.6460    6.9360 C.3    90  LEU90       0.0022
    126  CD1      -69.2550   49.0110    5.6680 C.3    90  LEU90       0.0001
    127  CD2      -69.4880   49.1490    8.1500 C.3    90  LEU90       0.0001
    128  N        -64.4280   50.0770    9.3370 N.am   91  GLY91      -0.1940
    129  CA       -63.2660   49.4220    9.9320 C.3    91  GLY91       0.2014
    130  C        -62.2080   48.8320    9.0030 C.2    91  GLY91       0.2639
    131  O        -62.1840   49.1160    7.8100 O.2    91  GLY91      -0.2714
    132  N        -61.3310   47.9970    9.5500 N.am   92  THR92      -0.1950
    133  CA       -60.2790   47.3980    8.7470 C.3    92  THR92       0.1897
    134  C        -60.6800   46.0490    8.1450 C.2    92  THR92       0.2313
    135  O        -61.5140   45.3240    8.7010 O.2    92  THR92      -0.2863
    136  CB       -58.9670   47.1850    9.5690 C.3    92  THR92       0.1794
    137  OG1      -59.1440   46.1070   10.4970 O.3    92  THR92      -0.2208
    138  CG2      -58.5830   48.4530   10.3240 C.3    92  THR92       0.0378
    139  N        -60.0330   43.1930   10.5320 N.3    95  ARG95      -0.1245
    140  CA       -61.0720   42.9680   11.5310 C.3    95  ARG95       0.1563
    141  C        -62.2160   42.1850   10.9000 C.2    95  ARG95       0.2260
    142  O        -62.6820   41.1900   11.4630 O.2    95  ARG95      -0.2867
    143  CB       -61.6000   44.2950   12.0810 C.3    95  ARG95       0.0307
    144  CG       -60.6300   44.9990   12.9960 C.3    95  ARG95       0.0489
    145  CD       -60.1870   44.0640   14.0980 C.3    95  ARG95       0.2205
    146  NE       -59.2140   44.6880   14.9850 N.pl3  95  ARG95      -0.0865
    147  CZ       -58.6120   44.0570   15.9870 C.cat  95  ARG95       0.5346
    148  NH1      -58.8850   42.7810   16.2250 N.pl3  95  ARG95       0.1354
    149  NH2      -57.7390   44.7010   16.7520 N.pl3  95  ARG95       0.1354
    150  N        -63.7410   38.5060   11.9340 N.3    99  LYS99      -0.1245
    151  CA       -65.1510   38.3210   12.2420 C.3    99  LYS99       0.1561
    152  C        -65.7790   37.2120   11.3980 C.2    99  LYS99       0.2260
    153  O        -66.5180   36.3770   11.9200 O.2    99  LYS99      -0.2867
    154  CB       -65.9100   39.6310   12.0150 C.3    99  LYS99       0.0271
    155  CG       -67.4030   39.5490   12.2820 C.3    99  LYS99       0.0035
    156  CD       -68.0740   40.8800   12.0000 C.3    99  LYS99       0.0206
    157  CE       -67.8450   41.3130   10.5580 C.3    99  LYS99       0.1093
    158  NZ       -68.2830   42.7200   10.3060 N.3    99  LYS99      -0.1314
    159  N        -54.3120   44.8010    7.8620 N.3   135  GLU135     -0.1231
    160  CA       -54.4790   45.7950    8.9160 C.3   135  GLU135      0.1699
    161  C        -54.4260   47.2230    8.3990 C.2   135  GLU135      0.2592
    162  O        -54.8930   48.1340    9.0790 O.2   135  GLU135     -0.2718
    163  CB       -53.4280   45.6150   10.0170 C.3   135  GLU135      0.0402
    164  CG       -53.5540   44.3210   10.8060 C.3   135  GLU135      0.1161
    165  CD       -52.9670   43.1170   10.0740 C.2   135  GLU135      0.3649
    166  OE1      -52.6810   43.2230    8.8590 O.co2 135  GLU135     -0.2457
    167  OE2      -52.7960   42.0570   10.7190 O.co2 135  GLU135     -0.2457
    168  N        -53.8720   47.4280    7.2040 N.am  136  ASN136     -0.1974
    169  CA       -53.8010   48.7750    6.6480 C.3   136  ASN136      0.1688
    170  C        -54.8350   49.0670    5.5840 C.2   136  ASN136      0.2292
    171  O        -54.7150   50.0540    4.8520 O.2   136  ASN136     -0.2864
    172  CB       -52.4170   49.0690    6.0800 C.3   136  ASN136      0.1181
    173  CG       -51.3640   49.1210    7.1440 C.2   136  ASN136      0.2629
    174  OD1      -51.5910   49.6620    8.2290 O.2   136  ASN136     -0.2716
    175  ND2      -50.1970   48.5660    6.8470 N.am  136  ASN136     -0.0877
    176  N        -58.8110   49.8320    4.9470 N.3   138  LEU138     -0.1245
    177  CA       -60.0600   50.2320    5.5860 C.3   138  LEU138      0.1561
    178  C        -61.2470   50.0490    4.6370 C.2   138  LEU138      0.2260
    179  O        -61.0810   49.9300    3.4210 O.2   138  LEU138     -0.2867
    180  CB       -59.9780   51.6960    6.0360 C.3   138  LEU138      0.0270
    181  CG       -59.0300   51.9320    7.2090 C.3   138  LEU138      0.0019
    182  CD1      -58.7020   53.4080    7.3230 C.3   138  LEU138      0.0001
    183  CD2      -59.6620   51.3820    8.4820 C.3   138  LEU138      0.0001
    184  N        -54.7920   52.2780    3.1990 N.3   148  ALA148     -0.1231
    185  CA       -54.5720   53.3060    4.2110 C.3   148  ALA148      0.1694
    186  C        -53.1630   53.4630    4.7780 C.2   148  ALA148      0.2592
    187  O        -52.9290   54.3690    5.5740 O.2   148  ALA148     -0.2718
    188  CB       -55.5650   53.1190    5.3530 C.3   148  ALA148      0.0304
    189  N        -52.2310   52.5870    4.4190 N.am  149  ASP149     -0.1960
    190  CA       -50.8660   52.7650    4.9010 C.3   149  ASP149      0.1840
    191  C        -50.3600   53.8550    3.9710 C.2   149  ASP149      0.2622
    192  O        -51.0880   54.2800    3.0830 O.2   149  ASP149     -0.2715
    193  CB       -50.0340   51.4950    4.7170 C.3   149  ASP149      0.1450
    194  CG       -49.9220   51.0650    3.2590 C.2   149  ASP149      0.3671
    195  OD1      -49.8090   51.9380    2.3690 O.co2 149  ASP149     -0.2456
    196  OD2      -49.9280   49.8410    3.0080 O.co2 149  ASP149     -0.2456
    197  N        -49.1420   54.3340    4.1380 N.am  150  PHE150     -0.1974
    198  CA       -48.7110   55.3540    3.2000 C.3   150  PHE150      0.1639
    199  C        -47.4510   54.9420    2.4650 C.2   150  PHE150      0.2290
    200  O        -46.6700   55.7820    2.0250 O.2   150  PHE150     -0.2864
    201  CB       -48.5260   56.6990    3.9100 C.3   150  PHE150      0.0560
    202  CG       -49.8270   57.4210    4.1910 C.ar  150  PHE150     -0.0200
    203  CD1      -50.7450   56.9100    5.0980 C.ar  150  PHE150     -0.0042
    204  CD2      -50.1350   58.6040    3.5360 C.ar  150  PHE150     -0.0042
    205  CE1      -51.9480   57.5670    5.3450 C.ar  150  PHE150     -0.0003
    206  CE2      -51.3350   59.2620    3.7800 C.ar  150  PHE150     -0.0003
    207  CZ       -52.2390   58.7410    4.6850 C.ar  150  PHE150     -0.0000
@<TRIPOS>BOND
     1    71    72    1
     2    94    93   ar
     3    74    73    2
     4    73    72    1
     5    72    75    1
     6    95    93   ar
     7    93    92    1
     8   200   199    2
     9   195   194   ar
    10   199   198    1
    11    92    91    1
    12    75    76    1
    13   196   194   ar
    14   192   191    2
    15   184   185    1
    16   198   201    1
    17   198   197    1
    18   194   193    1
    19    91    88    1
    20   179   178    2
    21   204   206   ar
    22   204   202   ar
    23   206   207   ar
    24   201   202    1
    25   191   197   am
    26   191   190    1
    27    76    77    1
    28    76    78    1
    29   202   203   ar
    30   185   186    1
    31   185   188    1
    32   189   186   am
    33   189   190    1
    34   178   177    1
    35    88    87    1
    36    88    89    1
    37   207   205   ar
    38   193   190    1
    39   186   187    2
    40   171   170    2
    41   176   177    1
    42    87    81   am
    43   203   205   ar
    44   170   169    1
    45   177   180    1
    46   126   125    1
    47    99    98    2
    48    89    96   am
    49    89    90    2
    50    86    84    1
    51    81    80    1
    52    81    82    2
    53   180   181    1
    54   172   169    1
    55   172   173    1
    56    96    97    1
    57    80    83    1
    58    80    79    1
    59   112   109    1
    60   119   118    1
    61   119   113    1
    62   109   108    1
    63   109   110    1
    64   118   117    1
    65    98   108   am
    66    98    97    1
    67   169   168    1
    68   175   173   am
    69    83    84    1
    70   125   124    1
    71   125   127    1
    72   124   121    1
    73   173   174    2
    74   168   161   am
    75   181   182    1
    76   181   183    1
    77    97   100    1
    78    84    85    1
    79   113   110   am
    80   113   114    1
    81   110   111    2
    82   131   130    2
    83   159   160    1
    84   117   114    1
    85   120   121    1
    86   120   115   am
    87   100   101    1
    88   134   135    2
    89   134   133    1
    90   121   122    1
    91   161   160    1
    92   161   162    2
    93   114   115    1
    94   133   132    1
    95   133   136    1
    96   115   116    2
    97   166   165   ar
    98   103   101   ar
    99   103   105   ar
   100   160   163    1
   101   122   123    2
   102   122   128   am
   103   101   102   ar
   104   130   132   am
   105   130   129    1
   106    57    58    1
   107   128   129    1
   108    60    59    2
   109   136   138    1
   110   136   137    1
   111   105   106   ar
   112   102   104   ar
   113   163   164    1
   114    61    58    1
   115   165   167   ar
   116   165   164    1
   117   158   157    1
   118    58    59    1
   119    70    69    1
   120   139   140    1
   121   157   156    1
   122   106   104   ar
   123   106   107    1
   124   141   142    2
   125   141   140    1
   126    68    69    1
   127    68    67    1
   128   152   153    2
   129   152   151    1
   130    66    67    1
   131    66    63    1
   132   140   143    1
   133   150   151    1
   134   156   155    1
   135   154   151    1
   136   154   155    1
   137    62    63    1
   138   143   144    1
   139    65    64    2
   140    63    64    1
   141    55    54    1
   142   144   145    1
   143    18    17    1
   144    56    54    1
   145    54    51    1
   146   145   146    1
   147    17    19    1
   148    17    16    1
   149    16    13    1
   150   146   147    2
   151    51    52    1
   152    51    50    1
   153    11     9    1
   154    45    44    1
   155    52    53    2
   156    15    14    2
   157   147   148    1
   158   147   149    1
   159    43    44    1
   160    43    42    1
   161    13    14    1
   162    13    12    1
   163    14    20   am
   164     9    10    1
   165     9     8    2
   166    41    42    1
   167    41    38    1
   168    46    47    1
   169    34    35    1
   170    34    33    1
   171    37    38    1
   172    37    35   am
   173    20    21    1
   174    47    48    1
   175     8     7    1
   176    49    48    2
   177    21    22    1
   178    23    22    2
   179    39    38    1
   180    39    40    2
   181     4     3    2
   182    22    24   am
   183    35    36    2
   184    33    26   am
   185    27    26    2
   186    26    25    1
   187     6     7    1
   188     6     5    1
   189    24    25    1
   190    25    28    1
   191     3     2    1
   192     1     2    1
   193     2     5    1
   194    28    29    1
   195    30    29    1
   196    30    31    1
   197    31    32    1
