@<TRIPOS>MOLECULE
tmp/2bmeA00.pdb
 171 164 0 0 0
SMALL
GASTEIGER

@<TRIPOS>ATOM
      1  N         77.9460    5.6130   -0.2580 N.3    16  ALA16      -0.1231
      2  CA        78.0630    6.7980    0.5710 C.3    16  ALA16       0.1694
      3  C         77.6800    8.0120   -0.2600 C.2    16  ALA16       0.2593
      4  O         78.0000    8.0730   -1.4590 O.2    16  ALA16      -0.2718
      5  CB        79.4920    6.9600    1.1040 C.3    16  ALA16       0.0304
      6  N         77.0250    8.9850    0.3710 N.am   17  GLY17      -0.1942
      7  CA        76.8390   10.2600   -0.2910 C.3    17  GLY17       0.2014
      8  C         75.5370   10.2590   -1.0970 C.2    17  GLY17       0.2640
      9  O         75.2440   11.2790   -1.7150 O.2    17  GLY17      -0.2714
     10  N         74.7960    9.1450   -1.1330 N.am   18  THR18      -0.1936
     11  CA        73.6630    9.0850   -2.0540 C.3    18  THR18       0.2028
     12  C         72.4390    9.7560   -1.4750 C.2    18  THR18       0.2643
     13  O         71.5220   10.0760   -2.2270 O.2    18  THR18      -0.2714
     14  CB        73.3300    7.6390   -2.5120 C.3    18  THR18       0.1808
     15  OG1       73.1890    6.7700   -1.3680 O.3    18  THR18      -0.2208
     16  CG2       74.4400    7.0550   -3.4290 C.3    18  THR18       0.0379
     17  N         72.3920    9.9090   -0.1530 N.am   19  GLY19      -0.1939
     18  CA        71.2990   10.6210    0.4890 C.3    19  GLY19       0.2014
     19  C         70.4170    9.7850    1.3680 C.2    19  GLY19       0.2639
     20  O         69.2830   10.1730    1.6660 O.2    19  GLY19      -0.2714
     21  N         70.9370    8.6290    1.7840 N.am   20  LYS20      -0.1963
     22  CA        70.1910    7.7190    2.6550 C.3    20  LYS20       0.1728
     23  C         69.6990    8.3590    3.9580 C.2    20  LYS20       0.2617
     24  O         68.5150    8.1850    4.3420 O.2    20  LYS20      -0.2715
     25  CB        71.0530    6.4700    2.9250 C.3    20  LYS20       0.0311
     26  CG        71.4000    5.6960    1.6620 C.3    20  LYS20       0.0038
     27  CD        72.1680    4.3820    1.9580 C.3    20  LYS20       0.0206
     28  CE        73.4480    4.6080    2.7830 C.3    20  LYS20       0.1093
     29  NZ        74.4200    5.4770    1.9340 N.3    20  LYS20      -0.1314
     30  N         70.6000    9.0160    4.6740 N.am   21  SER21      -0.1936
     31  CA        70.2370    9.6210    5.9500 C.3    21  SER21       0.2055
     32  C         69.2300   10.7460    5.7620 C.2    21  SER21       0.2643
     33  O         68.2700   10.8630    6.5320 O.2    21  SER21      -0.2714
     34  CB        71.4720   10.0820    6.6830 C.3    21  SER21       0.2130
     35  OG        72.3170    8.9480    6.9090 O.3    21  SER21      -0.2179
     36  N         69.4260   11.5350    4.6960 N.am   22  CYS22      -0.1967
     37  CA        68.4830   12.5990    4.3810 C.3    22  CYS22       0.1712
     38  C         67.1340   12.0030    3.9700 C.2    22  CYS22       0.2296
     39  O         66.0920   12.6090    4.2480 O.2    22  CYS22      -0.2864
     40  CB        69.0310   13.5160    3.2940 C.3    22  CYS22       0.0983
     41  SG        70.4010   14.5760    3.8880 S.3    22  CYS22      -0.0798
     42  N         64.2140   18.6690    5.1300 N.3    32  PHE32      -0.1241
     43  CA        65.5740   18.3560    4.6590 C.3    32  PHE32       0.1605
     44  C         66.5670   18.7000    5.7720 C.2    32  PHE32       0.2264
     45  O         66.5440   19.8030    6.3110 O.2    32  PHE32      -0.2867
     46  CB        65.8860   19.1500    3.3730 C.3    32  PHE32       0.0534
     47  CG        67.2060   18.7940    2.7230 C.ar   32  PHE32      -0.0203
     48  CD1       67.5060   17.4830    2.3740 C.ar   32  PHE32      -0.0042
     49  CD2       68.1250   19.7990    2.4070 C.ar   32  PHE32      -0.0042
     50  CE1       68.7220   17.1610    1.7440 C.ar   32  PHE32      -0.0003
     51  CE2       69.3330   19.4950    1.7840 C.ar   32  PHE32      -0.0003
     52  CZ        69.6320   18.1780    1.4690 C.ar   32  PHE32      -0.0000
     53  N         70.0990   20.0490    6.1370 N.3    34  ASP34      -0.1239
     54  CA        71.2540   20.2860    5.1840 C.3    34  ASP34       0.1674
     55  C         72.6750   20.2410    5.7960 C.2    34  ASP34       0.2266
     56  O         73.6530   20.5400    5.1090 O.2    34  ASP34      -0.2867
     57  CB        71.0450   21.5960    4.4160 C.3    34  ASP34       0.1410
     58  CG        70.4550   22.7340    5.2210 C.2    34  ASP34       0.3668
     59  OD1       70.6490   22.7380    6.4680 O.co2  34  ASP34      -0.2456
     60  OD2       69.8110   23.6080    4.6210 O.co2  34  ASP34      -0.2456
     61  N         74.0590   17.2790    6.9720 N.3    36  SER36      -0.1202
     62  CA        74.1840   15.8240    7.0680 C.3    36  SER36       0.2020
     63  C         75.6100   15.4040    6.7060 C.2    36  SER36       0.2619
     64  O         76.1170   15.7460    5.6190 O.2    36  SER36      -0.2717
     65  CB        73.1890   15.0830    6.1580 C.3    36  SER36       0.2103
     66  OG        73.2370   13.6660    6.3900 O.3    36  SER36      -0.2182
     67  N         76.2440   14.6700    7.6220 N.am   37  ASN37      -0.1960
     68  CA        77.5380   14.0430    7.3380 C.3    37  ASN37       0.1819
     69  C         77.4990   12.4980    7.3270 C.2    37  ASN37       0.2621
     70  O         76.5040   11.8900    7.6910 O.2    37  ASN37      -0.2715
     71  CB        78.5980   14.5520    8.3120 C.3    37  ASN37       0.1195
     72  CG        78.6330   16.0780    8.4120 C.2    37  ASN37       0.2630
     73  OD1       78.8170   16.8010    7.4140 O.2    37  ASN37      -0.2716
     74  ND2       78.4680   16.5730    9.6280 N.am   37  ASN37      -0.0877
     75  N         78.6080   11.8910    6.9300 N.am   38  HIS38      -0.1959
     76  CA        78.6880   10.4460    6.7770 C.3    38  HIS38       0.1787
     77  C         78.2940    9.7140    8.0320 C.2    38  HIS38       0.2620
     78  O         78.7210   10.0880    9.1480 O.2    38  HIS38      -0.2715
     79  CB        80.0930   10.0570    6.3380 C.3    38  HIS38       0.0785
     80  CG        80.4110   10.5340    4.9630 C.ar   38  HIS38       0.0821
     81  ND1       79.7730   10.0220    3.8510 N.ar   38  HIS38      -0.2267
     82  CD2       81.2260   11.5180    4.5120 C.ar   38  HIS38       0.1154
     83  CE1       80.2200   10.6370    2.7690 C.ar   38  HIS38       0.1986
     84  NE2       81.0820   11.5660    3.1420 N.ar   38  HIS38      -0.2212
     85  N         77.4660    8.6930    7.8370 N.am   39  THR39      -0.1951
     86  CA        77.0220    7.8450    8.9290 C.3    39  THR39       0.1897
     87  C         78.1750    6.9170    9.2370 C.2    39  THR39       0.2313
     88  O         78.6050    6.1490    8.3500 O.2    39  THR39      -0.2863
     89  CB        75.8290    7.0740    8.4660 C.3    39  THR39       0.1794
     90  OG1       74.7740    8.0140    8.1610 O.3    39  THR39      -0.2208
     91  CG2       75.2760    6.2050    9.5900 C.3    39  THR39       0.0378
     92  N         69.2240    2.9410    8.9710 N.3    62  ASP62      -0.1225
     93  CA        69.9040    3.7320    7.9720 C.3    62  ASP62       0.1805
     94  C         71.4070    3.4060    8.0670 C.2    62  ASP62       0.2598
     95  O         72.1270    3.7710    9.0570 O.2    62  ASP62      -0.2718
     96  CB        69.6290    5.1880    8.3480 C.3    62  ASP62       0.1424
     97  CG        70.4770    6.1400    7.6030 C.2    62  ASP62       0.3668
     98  OD1       70.9230    5.7920    6.4780 O.co2  62  ASP62      -0.2456
     99  OD2       70.7470    7.2330    8.1600 O.co2  62  ASP62      -0.2456
    100  N         71.8890    2.6730    7.0520 N.am   63  THR63      -0.1953
    101  CA        73.2300    2.0840    7.1080 C.3    63  THR63       0.1897
    102  C         74.3290    2.9480    6.5120 C.2    63  THR63       0.2313
    103  O         74.0820    3.8800    5.7400 O.2    63  THR63      -0.2863
    104  CB        73.2770    0.6690    6.4340 C.3    63  THR63       0.1794
    105  OG1       73.0570    0.8260    5.0140 O.3    63  THR63      -0.2208
    106  CG2       72.2500   -0.2680    7.0600 C.3    63  THR63       0.0378
    107  N         77.1900    3.8270    4.1020 N.3    65  GLY65      -0.1210
    108  CA        77.5570    3.4970    2.7340 C.3    65  GLY65       0.1956
    109  C         79.0410    3.4000    2.4400 C.2    65  GLY65       0.2611
    110  O         79.4390    2.7520    1.4560 O.2    65  GLY65      -0.2717
    111  N         79.8920    4.0120    3.2710 N.am   66  GLN66      -0.1979
    112  CA        81.3330    3.9760    3.0330 C.3    66  GLN66       0.1601
    113  C         81.8470    2.5320    3.0420 C.2    66  GLN66       0.2287
    114  O         81.3770    1.7120    3.8590 O.2    66  GLN66      -0.2864
    115  CB        82.0750    4.8040    4.0890 C.3    66  GLN66       0.0394
    116  CG        81.9550    6.3230    3.8530 C.3    66  GLN66       0.0908
    117  CD        82.7660    7.1200    4.8540 C.2    66  GLN66       0.2608
    118  OE1       83.1670    8.2480    4.5720 O.2    66  GLN66      -0.2717
    119  NE2       83.0220    6.5360    6.0220 N.am   66  GLN66      -0.0878
    120  N         67.9350    9.0170   -6.1780 N.3   120  ASN120     -0.1225
    121  CA        67.7260   10.1960   -5.3470 C.3   120  ASN120      0.1785
    122  C         68.3820   11.4540   -5.9340 C.2   120  ASN120      0.2597
    123  O         69.2240   11.3810   -6.8570 O.2   120  ASN120     -0.2718
    124  CB        68.2730    9.8790   -3.9200 C.3   120  ASN120      0.1169
    125  CG        67.9030   10.9490   -2.9330 C.2   120  ASN120      0.2627
    126  OD1       66.7500   11.3740   -2.8700 O.2   120  ASN120     -0.2716
    127  ND2       68.8890   11.3700   -2.1190 N.am  120  ASN120     -0.0877
    128  N         68.0510   12.6290   -5.3660 N.am  121  LYS121     -0.1980
    129  CA        68.5960   13.9370   -5.7600 C.3   121  LYS121      0.1596
    130  C         67.9910   14.3790   -7.0680 C.2   121  LYS121      0.2287
    131  O         68.6110   15.1110   -7.8400 O.2   121  LYS121     -0.2864
    132  CB        70.1440   13.9850   -5.8030 C.3   121  LYS121      0.0298
    133  CG        70.7880   13.5120   -4.5030 C.3   121  LYS121      0.0038
    134  CD        72.2860   13.9210   -4.3910 C.3   121  LYS121      0.0206
    135  CE        73.0460   13.1670   -3.2460 C.3   121  LYS121      0.1093
    136  NZ        74.4870   13.5920   -3.1540 N.3   121  LYS121     -0.1314
    137  N         65.9820   16.6210   -7.6060 N.3   123  ASP123     -0.1225
    138  CA        65.9510   18.0810   -7.6710 C.3   123  ASP123      0.1805
    139  C         67.2220   18.6440   -8.3370 C.2   123  ASP123      0.2597
    140  O         67.2320   19.7940   -8.8130 O.2   123  ASP123     -0.2718
    141  CB        65.7280   18.6180   -6.2680 C.3   123  ASP123      0.1424
    142  CG        66.8590   18.2850   -5.3480 C.2   123  ASP123      0.3668
    143  OD1       66.9420   17.1150   -4.9010 O.co2 123  ASP123     -0.2456
    144  OD2       67.7110   19.1470   -5.0390 O.co2 123  ASP123     -0.2456
    145  N         68.2810   17.8170   -8.3700 N.am  124  LEU124     -0.1979
    146  CA        69.5750   18.1580   -9.0060 C.3   124  LEU124      0.1596
    147  C         69.6460   17.7330  -10.4850 C.2   124  LEU124      0.2287
    148  O         70.7250   17.4390  -11.0280 O.2   124  LEU124     -0.2864
    149  CB        70.7870   17.6230   -8.2040 C.3   124  LEU124      0.0297
    150  CG        70.9650   18.1160   -6.7530 C.3   124  LEU124      0.0022
    151  CD1       72.2140   17.4890   -6.0740 C.3   124  LEU124      0.0001
    152  CD2       71.0000   19.6380   -6.6440 C.3   124  LEU124      0.0001
    153  N         63.4650   12.8490   -4.0320 N.3   150  SER150     -0.1202
    154  CA        64.2760   13.9530   -3.5300 C.3   150  SER150      0.2020
    155  C         64.0680   14.0760   -2.0360 C.2   150  SER150      0.2619
    156  O         62.9920   14.4100   -1.5910 O.2   150  SER150     -0.2717
    157  CB        63.9160   15.2780   -4.1960 C.3   150  SER150      0.2103
    158  OG        64.6560   16.3280   -3.5560 O.3   150  SER150     -0.2182
    159  N         65.1440   13.8540   -1.2820 N.am  151  ALA151     -0.1965
    160  CA        65.1020   14.1010    0.1680 C.3   151  ALA151      0.1728
    161  C         64.8960   15.5870    0.4530 C.2   151  ALA151      0.2616
    162  O         64.3740   15.9550    1.5260 O.2   151  ALA151     -0.2715
    163  CB        66.3790   13.5950    0.8470 C.3   151  ALA151      0.0334
    164  N         65.3490   16.4270   -0.4760 N.am  152  LEU152     -0.1977
    165  CA        65.3110   17.8760   -0.2910 C.3   152  LEU152      0.1596
    166  C         63.8660   18.3820   -0.4080 C.2   152  LEU152      0.2287
    167  O         63.3920   19.1620    0.4370 O.2   152  LEU152     -0.2864
    168  CB        66.2590   18.5440   -1.3030 C.3   152  LEU152      0.0297
    169  CG        66.3230   20.0080   -1.7830 C.3   152  LEU152      0.0022
    170  CD1       65.1320   20.9340   -1.4780 C.3   152  LEU152      0.0001
    171  CD2       67.6390   20.6070   -1.3520 C.3   152  LEU152      0.0001
@<TRIPOS>BOND
     1   148   147    2
     2   147   146    1
     3   146   145    1
     4   146   149    1
     5   140   139    2
     6   145   139   am
     7   139   138    1
     8   149   150    1
     9   131   130    2
    10   138   137    1
    11   138   141    1
    12   130   129    1
    13   123   122    2
    14   150   152    1
    15   150   151    1
    16   141   142    1
    17   120   121    1
    18   122   128   am
    19   122   121    1
    20   132   129    1
    21   132   133    1
    22   129   128    1
    23   142   144   ar
    24   142   143   ar
    25   121   124    1
    26   133   134    1
    27   134   135    1
    28   157   158    1
    29   157   154    1
    30   153   154    1
    31   124   125    1
    32   154   155    1
    33    16    14    1
    34   135   136    1
    35   125   126    2
    36   125   127   am
    37    14    11    1
    38    14    15    1
    39    13    12    2
    40    11    12    1
    41    11    10    1
    42   155   156    2
    43   155   159   am
    44   169   170    1
    45   169   171    1
    46   169   168    1
    47     9     8    2
    48    12    17   am
    49     4     3    2
    50   168   165    1
    51   159   160    1
    52    10     8   am
    53     8     7    1
    54   164   165    1
    55   164   161   am
    56   166   165    1
    57   166   167    2
    58     7     6    1
    59     3     6   am
    60     3     2    1
    61     1     2    1
    62    17    18    1
    63   160   161    1
    64   160   163    1
    65   161   162    2
    66    18    19    1
    67     2     5    1
    68    19    20    2
    69    19    21   am
    70   110   109    2
    71    52    50   ar
    72    52    51   ar
    73    26    27    1
    74    26    25    1
    75    50    48   ar
    76    21    22    1
    77    51    49   ar
    78    29    28    1
    79    27    28    1
    80    48    47   ar
    81    49    47   ar
    82   109   108    1
    83   109   111   am
    84    22    25    1
    85    22    23    1
    86    47    46    1
    87   108   107    1
    88    83    84   ar
    89    83    81   ar
    90   112   113    1
    91   112   111    1
    92   112   115    1
    93   113   114    2
    94    84    82   ar
    95    40    41    1
    96    40    37    1
    97    46    43    1
    98    81    80   ar
    99   116   115    1
   100   116   117    1
   101    23    24    2
   102    23    30   am
   103    38    39    2
   104    38    37    1
   105    37    36    1
   106    57    54    1
   107    57    58    1
   108    82    80   ar
   109   118   117    2
   110    60    58   ar
   111    43    42    1
   112    43    44    1
   113    30    31    1
   114    36    32   am
   115   117   119   am
   116    80    79    1
   117   105   104    1
   118    56    55    2
   119    54    55    1
   120    54    53    1
   121    58    59   ar
   122    64    63    2
   123   103   102    2
   124    32    31    1
   125    32    33    2
   126    44    45    2
   127    31    34    1
   128    65    66    1
   129    65    62    1
   130    79    76    1
   131   104   106    1
   132   104   101    1
   133    98    97   ar
   134   102   101    1
   135    34    35    1
   136    63    62    1
   137    63    67   am
   138    76    75    1
   139    76    77    1
   140    75    69   am
   141    61    62    1
   142   100   101    1
   143   100    94   am
   144    69    68    1
   145    69    70    2
   146    68    67    1
   147    68    71    1
   148    73    72    2
   149    97    99   ar
   150    97    96    1
   151    85    77   am
   152    85    86    1
   153    93    94    1
   154    93    96    1
   155    93    92    1
   156    77    78    2
   157    94    95    2
   158    90    89    1
   159    71    72    1
   160    88    87    2
   161    72    74   am
   162    89    86    1
   163    89    91    1
   164    86    87    1
