@<TRIPOS>MOLECULE
tmp/2bmgB00.pdb
 213 209 0 0 0
SMALL
GASTEIGER

@<TRIPOS>ATOM
      1  N         13.7710   11.0540   14.1410 N.3    42  HIS42      -0.1241
      2  CA        12.3150   11.0480   14.1610 C.3    42  HIS42       0.1621
      3  C         11.7170   12.4110   14.5000 C.2    42  HIS42       0.2264
      4  O         10.5640   12.6830   14.1760 O.2    42  HIS42      -0.2867
      5  CB        11.7880    9.9810   15.1340 C.3    42  HIS42       0.0745
      6  CG        11.7890   10.3960   16.5720 C.ar   42  HIS42       0.0817
      7  ND1       12.8670   10.1920   17.4080 N.ar   42  HIS42      -0.2268
      8  CD2       10.8250   10.9600   17.3330 C.ar   42  HIS42       0.1154
      9  CE1       12.5610   10.6090   18.6230 C.ar   42  HIS42       0.1986
     10  NE2       11.3300   11.0790   18.6090 N.ar   42  HIS42      -0.2212
     11  N         10.7950    4.7800   10.2390 N.3    82  LYS82      -0.1231
     12  CA         9.7620    4.8760   11.2600 C.3    82  LYS82       0.1693
     13  C          9.3660    3.4530   11.6650 C.2    82  LYS82       0.2592
     14  O          9.1520    3.1590   12.8390 O.2    82  LYS82      -0.2718
     15  CB         8.5460    5.6020   10.6870 C.3    82  LYS82       0.0285
     16  CG         7.7610    6.4200   11.6890 C.3    82  LYS82       0.0035
     17  CD         8.4400    7.7530   11.9530 C.3    82  LYS82       0.0206
     18  CE         7.5810    8.6440   12.8320 C.3    82  LYS82       0.1093
     19  NZ         8.2120    9.9740   13.0620 N.3    82  LYS82      -0.1314
     20  N          9.2840    2.5740   10.6700 N.am   83  GLU83      -0.1966
     21  CA         8.9020    1.1880   10.8860 C.3    83  GLU83       0.1733
     22  C          9.7030    0.5330   11.9880 C.2    83  GLU83       0.2617
     23  O          9.1900   -0.3030   12.7220 O.2    83  GLU83      -0.2715
     24  CB         9.0890    0.3720    9.6060 C.3    83  GLU83       0.0429
     25  CG         8.5720    1.0360    8.3420 C.3    83  GLU83       0.1163
     26  CD         7.0860    1.3540    8.4000 C.2    83  GLU83       0.3649
     27  OE1        6.2830    0.4210    8.6210 O.co2  83  GLU83      -0.2457
     28  OE2        6.7220    2.5350    8.2120 O.co2  83  GLU83      -0.2457
     29  N         10.9660    0.9120   12.1120 N.am   84  THR84      -0.1937
     30  CA        11.8190    0.2950   13.1170 C.3    84  THR84       0.2028
     31  C         12.4720    1.2430   14.1220 C.2    84  THR84       0.2642
     32  O         12.9430    0.8060   15.1740 O.2    84  THR84      -0.2714
     33  CB        12.9210   -0.5330   12.4270 C.3    84  THR84       0.1808
     34  OG1       13.8330   -1.0330   13.4120 O.3    84  THR84      -0.2208
     35  CG2       13.6700    0.3210   11.4150 C.3    84  THR84       0.0379
     36  N         12.4930    2.5340   13.8060 N.am   85  TYR85      -0.1973
     37  CA        13.1100    3.5310   14.6770 C.3    85  TYR85       0.1639
     38  C         14.6110    3.3320   14.8230 C.2    85  TYR85       0.2290
     39  O         15.2340    3.8720   15.7380 O.2    85  TYR85      -0.2864
     40  CB        12.4610    3.5270   16.0660 C.3    85  TYR85       0.0560
     41  CG        11.3600    4.5450   16.2080 C.ar   85  TYR85      -0.0198
     42  CD1       10.1820    4.4360   15.4710 C.ar   85  TYR85      -0.0009
     43  CD2       11.5090    5.6450   17.0470 C.ar   85  TYR85      -0.0009
     44  CE1        9.1810    5.4010   15.5640 C.ar   85  TYR85       0.0417
     45  CE2       10.5110    6.6190   17.1480 C.ar   85  TYR85       0.0417
     46  CZ         9.3540    6.4900   16.4030 C.ar   85  TYR85       0.1957
     47  OH         8.3740    7.4520   16.4850 O.3    85  TYR85      -0.2866
     48  N          6.9450   15.6460   29.1260 N.3   132  ARG132     -0.1245
     49  CA         5.8630   15.5120   30.0990 C.3   132  ARG132      0.1563
     50  C          6.3590   14.9600   31.4220 C.2   132  ARG132      0.2260
     51  O          7.3100   14.1900   31.4630 O.2   132  ARG132     -0.2867
     52  CB         4.7730   14.5860   29.5740 C.3   132  ARG132      0.0307
     53  CG         4.0560   15.0850   28.3610 C.3   132  ARG132      0.0489
     54  CD         2.9110   14.1640   28.0450 C.3   132  ARG132      0.2205
     55  NE         2.2510   14.5160   26.7960 N.pl3 132  ARG132     -0.0865
     56  CZ         1.1200   13.9680   26.3790 C.cat 132  ARG132      0.5346
     57  NH1        0.5220   13.0450   27.1170 N.pl3 132  ARG132      0.1354
     58  NH2        0.5930   14.3390   25.2230 N.pl3 132  ARG132      0.1354
     59  N          2.7260   10.4030   32.1490 N.3   135  GLU135     -0.1245
     60  CA         2.4080    9.8600   30.8440 C.3   135  GLU135      0.1567
     61  C          1.2520   10.5950   30.1860 C.2   135  GLU135      0.2260
     62  O          1.2530   10.8020   28.9740 O.2   135  GLU135     -0.2867
     63  CB         2.0900    8.3630   30.9560 C.3   135  GLU135      0.0388
     64  CG         2.1820    7.6180   29.6310 C.3   135  GLU135      0.1160
     65  CD         2.0180    6.1130   29.7820 C.2   135  GLU135      0.3649
     66  OE1        2.7860    5.5000   30.5580 O.co2 135  GLU135     -0.2457
     67  OE2        1.1220    5.5440   29.1160 O.co2 135  GLU135     -0.2457
     68  N          9.3780   -4.4960   20.9780 N.3   162  PHE162     -0.1227
     69  CA        10.0020   -4.2550   19.6860 C.3   162  PHE162      0.1736
     70  C         11.4480   -4.7200   19.6880 C.2   162  PHE162      0.2595
     71  O         12.0680   -4.8450   20.7380 O.2   162  PHE162     -0.2718
     72  CB         9.9140   -2.7700   19.3470 C.3   162  PHE162      0.0547
     73  CG         8.5120   -2.2620   19.2520 C.ar  162  PHE162     -0.0202
     74  CD1        7.7390   -2.5300   18.1300 C.ar  162  PHE162     -0.0042
     75  CD2        7.9470   -1.5490   20.3040 C.ar  162  PHE162     -0.0042
     76  CE1        6.4170   -2.0930   18.0540 C.ar  162  PHE162     -0.0003
     77  CE2        6.6240   -1.1070   20.2380 C.ar  162  PHE162     -0.0003
     78  CZ         5.8590   -1.3810   19.1130 C.ar  162  PHE162     -0.0000
     79  N         11.9770   -4.9820   18.5020 N.am  163  ILE163     -0.1980
     80  CA        13.3480   -5.4440   18.3820 C.3   163  ILE163      0.1595
     81  C         14.3360   -4.3180   18.6970 C.2   163  ILE163      0.2287
     82  O         14.3090   -3.2550   18.0680 O.2   163  ILE163     -0.2864
     83  CB        13.6000   -6.0120   16.9510 C.3   163  ILE163      0.0276
     84  CG1       15.0150   -6.5890   16.8330 C.3   163  ILE163      0.0022
     85  CG2       13.3370   -4.9320   15.9090 C.3   163  ILE163      0.0022
     86  CD1       16.1320   -5.5610   16.7500 C.3   163  ILE163      0.0001
     87  N         20.8250    0.9430   19.5530 N.3   168  MET168     -0.1245
     88  CA        20.0700    1.4670   20.6810 C.3   168  MET168      0.1570
     89  C         20.5350    0.8510   21.9940 C.2   168  MET168      0.2261
     90  O         21.4560    0.0400   22.0100 O.2   168  MET168     -0.2867
     91  CB        18.5690    1.2050   20.5000 C.3   168  MET168      0.0387
     92  CG        18.1730    0.5220   19.1940 C.3   168  MET168      0.0595
     93  SD        16.3740    0.2970   19.0250 S.3   168  MET168     -0.1393
     94  CE        16.0510    1.1320   17.4720 C.3   168  MET168      0.0692
     95  N         11.5520    8.2290   34.3500 N.3   179  ASP179     -0.1225
     96  CA        11.8850    7.8840   32.9710 C.3   179  ASP179      0.1805
     97  C         11.6480    9.1440   32.1540 C.2   179  ASP179      0.2598
     98  O         11.1800   10.1490   32.6870 O.2   179  ASP179     -0.2718
     99  CB        10.9610    6.7370   32.5220 C.3   179  ASP179      0.1424
    100  CG        11.2120    6.2690   31.0960 C.2   179  ASP179      0.3668
    101  OD1       12.3710    6.2850   30.6370 O.co2 179  ASP179     -0.2456
    102  OD2       10.2310    5.8580   30.4370 O.co2 179  ASP179     -0.2456
    103  N         12.0000    9.1210   30.8740 N.am  180  ALA180     -0.1966
    104  CA        11.7570   10.2860   30.0370 C.3   180  ALA180      0.1728
    105  C         10.3230   10.1110   29.5440 C.2   180  ALA180      0.2616
    106  O          9.7170    9.0610   29.7510 O.2   180  ALA180     -0.2715
    107  CB        12.7240   10.3200   28.8690 C.3   180  ALA180      0.0334
    108  N          9.7700   11.1400   28.9190 N.am  181  CYS181     -0.1954
    109  CA         8.4140   11.0650   28.4100 C.3   181  CYS181      0.1843
    110  C          8.3770   11.8440   27.1020 C.2   181  CYS181      0.2625
    111  O          9.3850   12.4410   26.7140 O.2   181  CYS181     -0.2714
    112  CB         7.4390   11.6360   29.4410 C.3   181  CYS181      0.0997
    113  SG         5.7610   10.9450   29.3270 S.3   181  CYS181     -0.0797
    114  N          7.2430   11.8630   26.4110 N.am  182  GLN182     -0.1977
    115  CA         7.2210   12.5700   25.1360 C.3   182  GLN182      0.1601
    116  C          7.5130   14.0750   25.2460 C.2   182  GLN182      0.2287
    117  O          6.9760   14.7730   26.1020 O.2   182  GLN182     -0.2864
    118  CB         5.9020   12.2960   24.3990 C.3   182  GLN182      0.0394
    119  CG         4.8300   13.3540   24.5050 C.3   182  GLN182      0.0908
    120  CD         3.6900   13.0890   23.5370 C.2   182  GLN182      0.2608
    121  OE1        2.7590   13.8850   23.4190 O.2   182  GLN182     -0.2717
    122  NE2        3.7600   11.9610   22.8380 N.am  182  GLN182     -0.0878
    123  N         12.2050   13.6690   23.3990 N.3   185  SER185     -0.1217
    124  CA        12.8110   13.0660   22.2170 C.3   185  SER185      0.1889
    125  C         13.9260   13.9330   21.6570 C.2   185  SER185      0.2288
    126  O         13.8040   15.1560   21.5980 O.2   185  SER185     -0.2866
    127  CB        11.7540   12.8430   21.1320 C.3   185  SER185      0.2089
    128  OG        10.7960   11.8970   21.5510 O.3   185  SER185     -0.2183
    129  N         17.7410   10.5460   23.3500 N.3   203  VAL203     -0.1231
    130  CA        16.4140   10.0770   23.7510 C.3   203  VAL203      0.1692
    131  C         15.6660    9.7100   22.4680 C.2   203  VAL203      0.2593
    132  O         15.2890   10.5870   21.6850 O.2   203  VAL203     -0.2718
    133  CB        15.6240   11.1700   24.5200 C.3   203  VAL203      0.0266
    134  CG1       14.2090   10.6830   24.8100 C.3   203  VAL203      0.0020
    135  CG2       16.3360   11.5150   25.8240 C.3   203  VAL203      0.0020
    136  N         15.4480    8.4110   22.2700 N.am  204  SER204     -0.1938
    137  CA        14.7950    7.9090   21.0660 C.3   204  SER204      0.2055
    138  C         13.3220    7.5370   21.2060 C.2   204  SER204      0.2643
    139  O         12.4570    8.2010   20.6350 O.2   204  SER204     -0.2714
    140  CB        15.5790    6.6990   20.5350 C.3   204  SER204      0.2130
    141  OG        15.1670    6.3330   19.2290 O.3   204  SER204     -0.2179
    142  N         13.0400    6.4650   21.9420 N.am  205  TRP205     -0.1959
    143  CA        11.6650    6.0110   22.1260 C.3   205  TRP205      0.1771
    144  C         11.4320    5.1780   23.3860 C.2   205  TRP205      0.2620
    145  O         12.3630    4.8390   24.1160 O.2   205  TRP205     -0.2715
    146  CB        11.1940    5.2000   20.9060 C.3   205  TRP205      0.0590
    147  CG        11.9860    3.9290   20.6380 C.ar  205  TRP205      0.0006
    148  CD1       13.1410    3.8180   19.9110 C.ar  205  TRP205      0.0946
    149  CD2       11.6720    2.5990   21.0930 C.ar  205  TRP205      0.0152
    150  NE1       13.5660    2.5070   19.8880 N.ar  205  TRP205     -0.2442
    151  CE2       12.6890    1.7400   20.6070 C.ar  205  TRP205      0.0810
    152  CE3       10.6410    2.0530   21.8750 C.ar  205  TRP205      0.0012
    153  CZ2       12.6950    0.3620   20.8600 C.ar  205  TRP205      0.0191
    154  CZ3       10.6480    0.6820   22.1270 C.ar  205  TRP205      0.0001
    155  CH2       11.6760   -0.1470   21.6250 C.ar  205  TRP205      0.0015
    156  N         10.1660    4.8580   23.6240 N.am  206  GLY206     -0.1940
    157  CA         9.7870    4.0680   24.7760 C.3   206  GLY206      0.2014
    158  C          8.3360    3.6710   24.6180 C.2   206  GLY206      0.2639
    159  O          7.6100    4.2680   23.8240 O.2   206  GLY206     -0.2714
    160  N          7.9150    2.6440   25.3490 N.am  207  GLU207     -0.1963
    161  CA         6.5270    2.1890   25.3010 C.3   207  GLU207      0.1733
    162  C          5.8260    2.8250   26.4980 C.2   207  GLU207      0.2617
    163  O          5.6330    2.1960   27.5370 O.2   207  GLU207     -0.2715
    164  CB         6.4550    0.6530   25.3760 C.3   207  GLU207      0.0429
    165  CG         7.0840   -0.0570   24.1700 C.3   207  GLU207      0.1163
    166  CD         6.9970   -1.5780   24.2420 C.2   207  GLU207      0.3649
    167  OE1        5.8690   -2.1270   24.2110 O.co2 207  GLU207     -0.2457
    168  OE2        8.0620   -2.2270   24.3260 O.co2 207  GLU207     -0.2457
    169  N          5.4650    4.0920   26.3430 N.am  208  GLY208     -0.1940
    170  CA         4.8160    4.8110   27.4180 C.3   208  GLY208      0.2014
    171  C          5.8790    5.5270   28.2090 C.2   208  GLY208      0.2639
    172  O          6.9990    5.6940   27.7300 O.2   208  GLY208     -0.2714
    173  N          5.5460    5.9530   29.4180 N.am  209  CYS209     -0.1967
    174  CA         6.5190    6.6440   30.2490 C.3   209  CYS209      0.1712
    175  C          6.6140    5.9760   31.6080 C.2   209  CYS209      0.2296
    176  O          5.6330    5.8950   32.3440 O.2   209  CYS209     -0.2864
    177  CB         6.1380    8.1190   30.3990 C.3   209  CYS209      0.0983
    178  SG         6.0470    9.0030   28.8040 S.3   209  CYS209     -0.0798
    179  N          6.4850    3.0960   32.4690 N.3   211  ARG211     -0.1245
    180  CA         5.6340    1.9320   32.6880 C.3   211  ARG211      0.1563
    181  C          6.4560    0.8000   33.2930 C.2   211  ARG211      0.2260
    182  O          7.6320    0.6370   32.9760 O.2   211  ARG211     -0.2867
    183  CB         4.9840    1.4590   31.3800 C.3   211  ARG211      0.0307
    184  CG         3.8970    2.3720   30.8310 C.3   211  ARG211      0.0489
    185  CD         3.2910    1.7860   29.5530 C.3   211  ARG211      0.2205
    186  NE         2.4090    2.7190   28.8580 N.pl3 211  ARG211     -0.0865
    187  CZ         1.8360    2.4760   27.6810 C.cat 211  ARG211      0.5346
    188  NH1        2.0480    1.3230   27.0630 N.pl3 211  ARG211      0.1354
    189  NH2        1.0560    3.3940   27.1130 N.pl3 211  ARG211      0.1354
    190  N         13.5040    3.0780   28.8780 N.3   216  GLY216     -0.1210
    191  CA        13.6130    4.1300   27.8930 C.3   216  GLY216      0.1956
    192  C         14.6060    3.6290   26.8620 C.2   216  GLY216      0.2612
    193  O         15.6040    2.9890   27.2050 O.2   216  GLY216     -0.2717
    194  N         14.3370    3.9100   25.5970 N.am  217  ILE217     -0.1965
    195  CA        15.2130    3.4630   24.5270 C.3   217  ILE217      0.1727
    196  C         15.9880    4.6390   23.9430 C.2   217  ILE217      0.2616
    197  O         15.4110    5.5500   23.3460 O.2   217  ILE217     -0.2715
    198  CB        14.3940    2.7830   23.4160 C.3   217  ILE217      0.0290
    199  CG1       13.3120    1.8860   24.0410 C.3   217  ILE217      0.0022
    200  CG2       15.3270    1.9900   22.4930 C.3   217  ILE217      0.0023
    201  CD1       13.8530    0.7710   24.9400 C.3   217  ILE217      0.0001
    202  N         17.3030    4.6150   24.1190 N.am  218  TYR218     -0.1974
    203  CA        18.1470    5.6930   23.6210 C.3   218  TYR218      0.1639
    204  C         18.9420    5.2780   22.3930 C.2   218  TYR218      0.2290
    205  O         19.1600    4.0970   22.1480 O.2   218  TYR218     -0.2864
    206  CB        19.1230    6.1490   24.7170 C.3   218  TYR218      0.0560
    207  CG        18.4570    6.6370   25.9840 C.ar  218  TYR218     -0.0198
    208  CD1       17.8400    5.7490   26.8620 C.ar  218  TYR218     -0.0009
    209  CD2       18.3930    7.9950   26.2740 C.ar  218  TYR218     -0.0009
    210  CE1       17.1690    6.2020   27.9960 C.ar  218  TYR218      0.0417
    211  CE2       17.7260    8.4630   27.4050 C.ar  218  TYR218      0.0417
    212  CZ        17.1130    7.5640   28.2570 C.ar  218  TYR218      0.1957
    213  OH        16.4300    8.0360   29.3530 O.3   218  TYR218     -0.2866
@<TRIPOS>BOND
     1    28    26   ar
     2    25    26    1
     3    25    24    1
     4    26    27   ar
     5    24    21    1
     6    11    12    1
     7    20    21    1
     8    20    13   am
     9    15    12    1
    10    15    16    1
    11    21    22    1
    12    12    13    1
    13    35    33    1
    14    13    14    2
    15    16    17    1
    16    17    18    1
    17    22    29   am
    18    22    23    2
    19    29    30    1
    20    33    30    1
    21    33    34    1
    22    18    19    1
    23    30    31    1
    24    36    31   am
    25    36    37    1
    26    31    32    2
    27     1     2    1
    28     2     3    1
    29     2     5    1
    30     4     3    2
    31    37    38    1
    32    37    40    1
    33    38    39    2
    34     5     6    1
    35    42    44   ar
    36    42    41   ar
    37    44    46   ar
    38    85    83    1
    39    40    41    1
    40    41    43   ar
    41    46    47    1
    42    46    45   ar
    43     6     8   ar
    44     6     7   ar
    45    86    84    1
    46    84    83    1
    47    83    80    1
    48    43    45   ar
    49     8    10   ar
    50     7     9   ar
    51    94    93    1
    52    76    74   ar
    53    76    78   ar
    54    82    81    2
    55    74    73   ar
    56    80    79    1
    57    80    81    1
    58    79    70   am
    59    10     9   ar
    60    93    92    1
    61    78    77   ar
    62    92    91    1
    63   141   140    1
    64    73    72    1
    65    73    75   ar
    66    72    69    1
    67    87    88    1
    68    69    70    1
    69    69    68    1
    70    70    71    2
    71   150   148   ar
    72   150   151   ar
    73   148   147   ar
    74    77    75   ar
    75    91    88    1
    76   140   137    1
    77   151   153   ar
    78   151   149   ar
    79   139   138    2
    80   147   146    1
    81   147   149   ar
    82    88    89    1
    83   153   155   ar
    84   146   143    1
    85   137   138    1
    86   137   136    1
    87   149   152   ar
    88   127   128    1
    89   127   124    1
    90   138   142   am
    91   126   125    2
    92   155   154   ar
    93   125   124    1
    94   132   131    2
    95   152   154   ar
    96   142   143    1
    97    89    90    2
    98   143   144    1
    99   205   204    2
   100   124   123    1
   101   136   131   am
   102   204   203    1
   103   131   130    1
   104   200   198    1
   105   122   120   am
   106   197   196    2
   107   129   130    1
   108   144   156   am
   109   144   145    2
   110   198   199    1
   111   198   195    1
   112   121   120    2
   113   120   119    1
   114   203   202    1
   115   203   206    1
   116   156   157    1
   117   130   133    1
   118   159   158    2
   119   196   202   am
   120   196   195    1
   121   199   201    1
   122   165   166    1
   123   165   164    1
   124   167   166   ar
   125   166   168   ar
   126   118   119    1
   127   118   115    1
   128   133   134    1
   129   133   135    1
   130   195   194    1
   131   158   157    1
   132   158   160   am
   133   206   207    1
   134   115   116    1
   135   115   114    1
   136    58    56    1
   137   116   117    2
   138   161   160    1
   139   161   164    1
   140   161   162    1
   141   194   192   am
   142   207   209   ar
   143   207   208   ar
   144   209   211   ar
   145   169   162   am
   146   169   170    1
   147    56    55    2
   148    56    57    1
   149   114   110   am
   150   162   163    2
   151   111   110    2
   152    55    54    1
   153   208   210   ar
   154   192   193    2
   155   192   191    1
   156   188   187    1
   157   110   109    1
   158   189   187    1
   159   211   212   ar
   160   170   171    1
   161   187   186    2
   162   172   171    2
   163   191   190    1
   164   210   212   ar
   165    54    53    1
   166   171   173   am
   167   212   213    1
   168    53    52    1
   169   109   108    1
   170   109   112    1
   171   178   113    1
   172   178   177    1
   173   186   185    1
   174   107   104    1
   175   108   105   am
   176    62    61    2
   177    67    65   ar
   178    48    49    1
   179   113   112    1
   180   173   174    1
   181   105   106    2
   182   105   104    1
   183   185   184    1
   184    52    49    1
   185    64    65    1
   186    64    63    1
   187    65    66   ar
   188   104   103    1
   189    49    50    1
   190    61    60    1
   191   174   177    1
   192   174   175    1
   193   102   100   ar
   194   101   100   ar
   195   184   183    1
   196    60    63    1
   197    60    59    1
   198   103    97   am
   199   100    99    1
   200   183   180    1
   201    50    51    2
   202   175   176    2
   203    97    98    2
   204    97    96    1
   205   179   180    1
   206    99    96    1
   207   180   181    1
   208    96    95    1
   209   182   181    2
