@<TRIPOS>MOLECULE
tmp/2bmrA00.pdb
 145 140 0 0 0
SMALL
GASTEIGER

@<TRIPOS>ATOM
      1  N         55.6610   60.8600    8.3770 N.3   197  ASN197     -0.1225
      2  CA        55.8480   61.6860    7.2030 C.3   197  ASN197      0.1785
      3  C         54.5830   62.4920    6.8780 C.2   197  ASN197      0.2597
      4  O         54.6440   63.7070    6.6590 O.2   197  ASN197     -0.2718
      5  CB        56.2790   60.8230    6.0220 C.3   197  ASN197      0.1169
      6  CG        56.5180   61.6310    4.7650 C.2   197  ASN197      0.2627
      7  OD1       55.6250   61.7800    3.9390 O.2   197  ASN197     -0.2716
      8  ND2       57.7170   62.1900    4.6320 N.am  197  ASN197     -0.0877
      9  N         53.4240   61.8310    6.8930 N.am  198  PHE198     -0.1976
     10  CA        52.1920   62.5400    6.5540 C.3   198  PHE198      0.1639
     11  C         51.6660   63.4340    7.6670 C.2   198  PHE198      0.2290
     12  O         51.0040   64.4350    7.3850 O.2   198  PHE198     -0.2864
     13  CB        51.1130   61.5830    6.0220 C.3   198  PHE198      0.0560
     14  CG        51.2050   61.3650    4.5450 C.ar  198  PHE198     -0.0200
     15  CD1       52.2770   60.6510    4.0170 C.ar  198  PHE198     -0.0042
     16  CD2       50.2590   61.8960    3.6800 C.ar  198  PHE198     -0.0042
     17  CE1       52.4070   60.4720    2.6360 C.ar  198  PHE198     -0.0003
     18  CE2       50.3710   61.7100    2.2920 C.ar  198  PHE198     -0.0003
     19  CZ        51.4520   61.0040    1.7750 C.ar  198  PHE198     -0.0000
     20  N         55.4510   66.2610    7.8530 N.3   201  ASP201     -0.1225
     21  CA        56.7070   66.4730    7.1180 C.3   201  ASP201      0.1805
     22  C         56.6510   67.4770    5.9580 C.2   201  ASP201      0.2598
     23  O         56.8720   67.1160    4.8000 O.2   201  ASP201     -0.2718
     24  CB        57.3240   65.1510    6.6560 C.3   201  ASP201      0.1424
     25  CG        58.8410   65.2470    6.4650 C.2   201  ASP201      0.3668
     26  OD1       59.4890   64.1810    6.4080 O.co2 201  ASP201     -0.2456
     27  OD2       59.3740   66.3730    6.3740 O.co2 201  ASP201     -0.2456
     28  N         56.3950   68.7440    6.2710 N.am  202  GLY202     -0.1957
     29  CA        56.5740   69.8060    5.2760 C.3   202  GLY202      0.1869
     30  C         58.0410   69.9710    4.8790 C.2   202  GLY202      0.2309
     31  O         58.3390   70.3750    3.7520 O.2   202  GLY202     -0.2863
     32  N         60.3740   67.8200    4.1830 N.3   204  HIS204     -0.1226
     33  CA        60.9550   66.9270    3.1620 C.3   204  HIS204      0.1752
     34  C         60.6390   67.3580    1.7430 C.2   204  HIS204      0.2595
     35  O         61.3780   67.0320    0.8070 O.2   204  HIS204     -0.2718
     36  CB        60.5530   65.4450    3.3790 C.3   204  HIS204      0.0759
     37  CG        59.2990   65.0080    2.6650 C.ar  204  HIS204      0.0818
     38  ND1       58.0300   65.4190    3.0400 N.ar  204  HIS204     -0.2268
     39  CD2       59.1210   64.1430    1.6360 C.ar  204  HIS204      0.1154
     40  CE1       57.1340   64.8450    2.2540 C.ar  204  HIS204      0.1986
     41  NE2       57.7680   64.0640    1.3960 N.ar  204  HIS204     -0.2212
     42  N         59.5310   68.0740    1.5740 N.am  205  VAL205     -0.1980
     43  CA        58.9910   68.3320    0.2390 C.3   205  VAL205      0.1595
     44  C         60.0210   68.9630   -0.7030 C.2   205  VAL205      0.2287
     45  O         60.2550   68.4470   -1.8010 O.2   205  VAL205     -0.2864
     46  CB        57.7170   69.2010    0.3030 C.3   205  VAL205      0.0276
     47  CG1       57.1990   69.5070   -1.1070 C.3   205  VAL205      0.0022
     48  CG2       56.6470   68.4980    1.1400 C.3   205  VAL205      0.0022
     49  N         61.6470   65.8280   -2.9070 N.3   209  HIS209     -0.1241
     50  CA        60.8850   65.9430   -4.1500 C.3   209  HIS209      0.1621
     51  C         61.3900   67.0550   -5.0680 C.2   209  HIS209      0.2264
     52  O         60.6730   67.4960   -5.9670 O.2   209  HIS209     -0.2867
     53  CB        59.3870   66.1010   -3.8300 C.3   209  HIS209      0.0745
     54  CG        58.8150   64.9410   -3.0760 C.ar  209  HIS209      0.0817
     55  ND1       58.8240   63.6560   -3.5790 N.ar  209  HIS209     -0.2268
     56  CD2       58.2250   64.8680   -1.8550 C.ar  209  HIS209      0.1154
     57  CE1       58.2700   62.8390   -2.6970 C.ar  209  HIS209      0.1986
     58  NE2       57.9010   63.5480   -1.6440 N.ar  209  HIS209     -0.2212
     59  N         54.1930   73.7940   -4.7830 N.3   220  PHE220     -0.1241
     60  CA        55.2480   73.5710   -3.7960 C.3   220  PHE220      0.1605
     61  C         56.6590   73.9050   -4.2920 C.2   220  PHE220      0.2264
     62  O         57.6150   73.8220   -3.5220 O.2   220  PHE220     -0.2867
     63  CB        55.1980   72.1370   -3.2580 C.3   220  PHE220      0.0534
     64  CG        54.2370   71.9610   -2.1400 C.ar  220  PHE220     -0.0203
     65  CD1       54.5160   72.5020   -0.8900 C.ar  220  PHE220     -0.0042
     66  CD2       53.0420   71.2790   -2.3330 C.ar  220  PHE220     -0.0042
     67  CE1       53.6270   72.3550    0.1650 C.ar  220  PHE220     -0.0003
     68  CE2       52.1400   71.1290   -1.2780 C.ar  220  PHE220     -0.0003
     69  CZ        52.4410   71.6710   -0.0310 C.ar  220  PHE220     -0.0000
     70  N         49.5650   74.5140    4.6760 N.3   249  PHE249     -0.1241
     71  CA        50.2890   75.3870    3.7570 C.3   249  PHE249      0.1605
     72  C         49.2310   76.2630    3.0910 C.2   249  PHE249      0.2264
     73  O         48.4070   75.7770    2.3110 O.2   249  PHE249     -0.2867
     74  CB        51.0330   74.5700    2.6840 C.3   249  PHE249      0.0534
     75  CG        52.3640   73.9950    3.1300 C.ar  249  PHE249     -0.0203
     76  CD1       52.4650   72.6730    3.5760 C.ar  249  PHE249     -0.0042
     77  CD2       53.5250   74.7630    3.0490 C.ar  249  PHE249     -0.0042
     78  CE1       53.7140   72.1360    3.9590 C.ar  249  PHE249     -0.0003
     79  CE2       54.7660   74.2410    3.4420 C.ar  249  PHE249     -0.0003
     80  CZ        54.8560   72.9240    3.8820 C.ar  249  PHE249     -0.0000
     81  N         50.2710   68.6040   -4.5010 N.3   256  ASN256     -0.1240
     82  CA        51.3480   67.9270   -5.2370 C.3   256  ASN256      0.1653
     83  C         51.0090   67.6700   -6.7090 C.2   256  ASN256      0.2266
     84  O         51.7250   66.9340   -7.4020 O.2   256  ASN256     -0.2867
     85  CB        51.8240   66.6410   -4.5240 C.3   256  ASN256      0.1155
     86  CG        50.7540   65.5680   -4.4500 C.2   256  ASN256      0.2627
     87  OD1       49.8380   65.5120   -5.2740 O.2   256  ASN256     -0.2716
     88  ND2       50.8770   64.6880   -3.4530 N.am  256  ASN256     -0.0877
     89  N         46.4030   73.5640    1.6100 N.3   291  PHE291     -0.1241
     90  CA        46.9120   72.1960    1.6190 C.3   291  PHE291      0.1605
     91  C         47.1380   71.7810    3.0560 C.2   291  PHE291      0.2264
     92  O         47.9450   72.3870    3.7700 O.2   291  PHE291     -0.2867
     93  CB        48.2300   72.1440    0.8390 C.3   291  PHE291      0.0534
     94  CG        48.9050   70.7950    0.8360 C.ar  291  PHE291     -0.0203
     95  CD1       48.6370   69.8610   -0.1750 C.ar  291  PHE291     -0.0042
     96  CD2       49.8280   70.4670    1.8280 C.ar  291  PHE291     -0.0042
     97  CE1       49.2880   68.6070   -0.1870 C.ar  291  PHE291     -0.0003
     98  CE2       50.4760   69.2230    1.8210 C.ar  291  PHE291     -0.0003
     99  CZ        50.2080   68.3050    0.8090 C.ar  291  PHE291     -0.0000
    100  N         48.2650   68.4820    5.3030 N.3   293  ASN293     -0.1240
    101  CA        48.8150   67.1220    5.3110 C.3   293  ASN293      0.1653
    102  C         48.7010   66.6230    6.7290 C.2   293  ASN293      0.2266
    103  O         49.1800   67.2730    7.6400 O.2   293  ASN293     -0.2867
    104  CB        50.2890   67.0950    4.8450 C.3   293  ASN293      0.1155
    105  CG        51.2170   67.8450    5.7780 C.2   293  ASN293      0.2627
    106  OD1       51.2510   69.0740    5.7660 O.2   293  ASN293     -0.2716
    107  ND2       51.9750   67.1110    6.5900 N.am  293  ASN293     -0.0877
    108  N         45.8180   64.1580    2.4560 N.3   303  LEU303     -0.1245
    109  CA        46.1760   65.4720    1.9590 C.3   303  LEU303      0.1561
    110  C         44.8940   66.1200    1.4910 C.2   303  LEU303      0.2260
    111  O         44.0770   65.4770    0.8260 O.2   303  LEU303     -0.2867
    112  CB        47.1290   65.3760    0.7660 C.3   303  LEU303      0.0270
    113  CG        48.4030   64.5540    0.9600 C.3   303  LEU303      0.0019
    114  CD1       49.1860   64.4970   -0.3520 C.3   303  LEU303      0.0001
    115  CD2       49.2650   65.0780    2.1050 C.3   303  LEU303      0.0001
    116  N         51.1420   60.0700   -5.9860 N.3   348  ILE348     -0.1245
    117  CA        51.4230   59.2600   -4.7980 C.3   348  ILE348      0.1561
    118  C         50.8650   57.8300   -4.7970 C.2   348  ILE348      0.2260
    119  O         50.9410   57.1450   -3.7770 O.2   348  ILE348     -0.2867
    120  CB        51.0260   59.9880   -3.4860 C.3   348  ILE348      0.0252
    121  CG1       49.5190   60.2430   -3.4650 C.3   348  ILE348      0.0019
    122  CG2       51.8270   61.2800   -3.3270 C.3   348  ILE348      0.0019
    123  CD1       49.0100   60.8110   -2.1410 C.3   348  ILE348      0.0001
    124  N         56.0610   61.1210   -7.2150 N.3   354  TRP354     -0.1241
    125  CA        56.4840   61.6420   -5.9130 C.3   354  TRP354      0.1605
    126  C         56.7010   60.4870   -4.9390 C.2   354  TRP354      0.2264
    127  O         57.7610   60.3720   -4.3270 O.2   354  TRP354     -0.2867
    128  CB        55.4220   62.5730   -5.3340 C.3   354  TRP354      0.0550
    129  CG        55.2720   63.8960   -6.0190 C.ar  354  TRP354      0.0003
    130  CD1       55.0500   64.1230   -7.3460 C.ar  354  TRP354      0.0946
    131  CD2       55.2630   65.1800   -5.3840 C.ar  354  TRP354      0.0152
    132  NE1       54.9260   65.4770   -7.5870 N.ar  354  TRP354     -0.2442
    133  CE2       55.0690   66.1470   -6.3980 C.ar  354  TRP354      0.0810
    134  CE3       55.4340   65.6100   -4.0620 C.ar  354  TRP354      0.0012
    135  CZ2       55.0090   67.5270   -6.1260 C.ar  354  TRP354      0.0191
    136  CZ3       55.3860   66.9810   -3.7960 C.ar  354  TRP354      0.0001
    137  CH2       55.1680   67.9180   -4.8250 C.ar  354  TRP354      0.0015
    138  N         59.8640   58.7860   -2.0270 N.3   358  ASP358     -0.1239
    139  CA        59.7000   58.5230   -0.5950 C.3   358  ASP358      0.1674
    140  C         60.1040   57.1290   -0.1560 C.2   358  ASP358      0.2266
    141  O         60.5180   56.9400    0.9970 O.2   358  ASP358     -0.2867
    142  CB        58.2580   58.7760   -0.1850 C.3   358  ASP358      0.1410
    143  CG        57.9100   60.2360   -0.1950 C.2   358  ASP358      0.3668
    144  OD1       58.6500   61.0260    0.4350 O.co2 358  ASP358     -0.2456
    145  OD2       56.9120   60.5990   -0.8440 O.co2 358  ASP358     -0.2456
@<TRIPOS>BOND
     1   132   130   ar
     2   132   133   ar
     3    84    83    2
     4   130   129   ar
     5   124   125    1
     6    83    82    1
     7   133   135   ar
     8   133   131   ar
     9   135   137   ar
    10   129   131   ar
    11   129   128    1
    12   116   117    1
    13    52    51    2
    14   125   128    1
    15   125   126    1
    16   131   134   ar
    17    87    86    2
    18    82    85    1
    19    82    81    1
    20    51    50    1
    21   126   127    2
    22   137   136   ar
    23   117   118    1
    24   117   120    1
    25   118   119    2
    26    59    60    1
    27    85    86    1
    28    86    88   am
    29    61    60    1
    30    61    62    2
    31    50    53    1
    32    50    49    1
    33   134   136   ar
    34    53    54    1
    35    60    63    1
    36    55    54   ar
    37    55    57   ar
    38   120   121    1
    39   120   122    1
    40   121   123    1
    41    63    64    1
    42    54    56   ar
    43    57    58   ar
    44    66    64   ar
    45    66    68   ar
    46    64    65   ar
    47   138   139    1
    48    56    58   ar
    49    45    44    2
    50    68    69   ar
    51    47    46    1
    52    65    67   ar
    53   145   143   ar
    54    44    43    1
    55   139   142    1
    56   139   140    1
    57   114   113    1
    58   143   142    1
    59   143   144   ar
    60    97    95   ar
    61    97    99   ar
    62    95    94   ar
    63   140   141    2
    64    69    67   ar
    65    43    46    1
    66    43    42    1
    67    46    48    1
    68   112   113    1
    69   112   109    1
    70    35    34    2
    71    99    98   ar
    72   111   110    2
    73    94    93    1
    74    94    96   ar
    75    93    90    1
    76   113   115    1
    77    41    39   ar
    78    41    40   ar
    79   110   109    1
    80    42    34   am
    81    89    90    1
    82    90    91    1
    83    39    37   ar
    84    34    33    1
    85    19    18   ar
    86    19    17   ar
    87    98    96   ar
    88   109   108    1
    89    40    38   ar
    90    18    16   ar
    91    73    72    2
    92    17    15   ar
    93    37    38   ar
    94    37    36    1
    95    74    75    1
    96    74    71    1
    97    77    75   ar
    98    77    79   ar
    99    91    92    2
   100    72    71    1
   101    75    76   ar
   102    33    36    1
   103    33    32    1
   104    79    80   ar
   105    76    78   ar
   106    16    14   ar
   107    31    30    2
   108    71    70    1
   109    80    78   ar
   110     7     6    2
   111    15    14   ar
   112    14    13    1
   113     8     6   am
   114     6     5    1
   115    23    22    2
   116   104   101    1
   117   104   105    1
   118    30    29    1
   119    29    28    1
   120   100   101    1
   121   101   102    1
   122   106   105    2
   123   105   107   am
   124    22    28   am
   125    22    21    1
   126     5     2    1
   127    13    10    1
   128    27    25   ar
   129    26    25   ar
   130    25    24    1
   131    10     9    1
   132    10    11    1
   133    24    21    1
   134     4     3    2
   135   102   103    2
   136     3     9   am
   137     3     2    1
   138    21    20    1
   139     2     1    1
   140    12    11    2
