@<TRIPOS>MOLECULE
tmp/2bmuB00.pdb
 198 190 0 0 0
SMALL
GASTEIGER

@<TRIPOS>ATOM
      1  N         92.3120  124.2760   43.5690 N.3     6  ASP6       -0.1239
      2  CA        91.2210  123.6010   44.2640 C.3     6  ASP6        0.1674
      3  C         89.9390  124.0660   43.5830 C.2     6  ASP6        0.2266
      4  O         89.4030  125.1240   43.9100 O.2     6  ASP6       -0.2867
      5  CB        91.2280  123.9990   45.7430 C.3     6  ASP6        0.1410
      6  CG        89.9270  123.6630   46.4580 C.2     6  ASP6        0.3668
      7  OD1       89.2010  122.7490   46.0170 O.co2   6  ASP6       -0.2456
      8  OD2       89.6420  124.3140   47.4810 O.co2   6  ASP6       -0.2456
      9  N         86.0670  123.7680   42.8680 N.3     8  GLY8       -0.1210
     10  CA        84.8320  123.2460   43.4240 C.3     8  GLY8        0.1956
     11  C         83.9780  122.4220   42.4690 C.2     8  GLY8        0.2612
     12  O         83.8160  122.7660   41.2900 O.2     8  GLY8       -0.2717
     13  N         83.4190  121.3300   42.9890 N.am    9  GLY9       -0.1942
     14  CA        82.5800  120.4610   42.1840 C.3     9  GLY9        0.2014
     15  C         81.3570  121.1550   41.6210 C.2     9  GLY9        0.2640
     16  O         80.9240  120.8530   40.5100 O.2     9  GLY9       -0.2714
     17  N         80.7890  122.0840   42.3840 N.am   10  SER10      -0.1935
     18  CA        79.6080  122.8140   41.9270 C.3    10  SER10       0.2055
     19  C         79.9400  123.8380   40.8460 C.2    10  SER10       0.2642
     20  O         79.0460  124.3500   40.1710 O.2    10  SER10      -0.2714
     21  CB        78.9150  123.5030   43.1010 C.3    10  SER10       0.2130
     22  OG        78.1420  122.5710   43.8400 O.3    10  SER10      -0.2179
     23  N         81.2230  124.1420   40.6890 N.am   11  VAL11      -0.1977
     24  CA        81.6510  125.0820   39.6620 C.3    11  VAL11       0.1596
     25  C         81.8100  124.3000   38.3610 C.2    11  VAL11       0.2287
     26  O         81.4250  124.7710   37.2930 O.2    11  VAL11      -0.2864
     27  CB        82.9910  125.7410   40.0270 C.3    11  VAL11       0.0276
     28  CG1       83.4660  126.5980   38.8890 C.3    11  VAL11       0.0022
     29  CG2       82.8310  126.5770   41.2710 C.3    11  VAL11       0.0022
     30  N         86.1870  119.0530   43.4400 N.3    43  GLY43      -0.1210
     31  CA        85.1780  118.7670   44.4460 C.3    43  GLY43       0.1956
     32  C         83.9990  117.9370   43.9700 C.2    43  GLY43       0.2612
     33  O         83.9530  117.5150   42.8130 O.2    43  GLY43      -0.2717
     34  N         83.0310  117.7270   44.8640 N.am   44  GLY44      -0.1942
     35  CA        81.8670  116.9160   44.5420 C.3    44  GLY44       0.2014
     36  C         80.6280  117.6550   44.0930 C.2    44  GLY44       0.2639
     37  O         79.8890  117.1730   43.2330 O.2    44  GLY44      -0.2714
     38  N         80.3780  118.8050   44.7060 N.am   45  GLY45      -0.1954
     39  CA        79.2330  119.6160   44.3340 C.3    45  GLY45       0.1869
     40  C         77.8520  119.0400   44.5800 C.2    45  GLY45       0.2309
     41  O         77.6610  118.1650   45.4170 O.2    45  GLY45      -0.2863
     42  N         76.1660  115.8670   47.1240 N.3    49  ARG49      -0.1245
     43  CA        75.1740  116.0830   48.1610 C.3    49  ARG49       0.1563
     44  C         73.9290  115.2400   47.9100 C.2    49  ARG49       0.2260
     45  O         73.2920  114.7720   48.8590 O.2    49  ARG49      -0.2867
     46  CB        74.8360  117.5720   48.2840 C.3    49  ARG49       0.0307
     47  CG        75.8810  118.3190   49.1030 C.3    49  ARG49       0.0489
     48  CD        75.4900  119.7430   49.4720 C.3    49  ARG49       0.2205
     49  NE        75.8170  120.7000   48.4200 N.pl3  49  ARG49      -0.0865
     50  CZ        74.9540  121.1290   47.5070 C.cat  49  ARG49       0.5346
     51  NH1       73.7020  120.6880   47.5220 N.pl3  49  ARG49       0.1354
     52  NH2       75.3430  121.9930   46.5780 N.pl3  49  ARG49       0.1354
     53  N         86.9110  118.0870   53.6060 N.3   117  THR117     -0.1203
     54  CA        86.4900  118.3820   52.2470 C.3   117  THR117      0.1994
     55  C         87.6840  118.3610   51.2960 C.2   117  THR117      0.2619
     56  O         88.8170  118.1600   51.7310 O.2   117  THR117     -0.2717
     57  CB        85.7700  119.7630   52.2610 C.3   117  THR117      0.1784
     58  OG1       84.3670  119.5560   52.0850 O.3   117  THR117     -0.2211
     59  CG2       86.3100  120.7190   51.2020 C.3   117  THR117      0.0376
     60  N         87.4380  118.5400   50.0020 N.am  118  THR118     -0.1938
     61  CA        88.5320  118.5600   49.0400 C.3   118  THR118      0.2028
     62  C         89.4300  119.7900   49.2420 C.2   118  THR118      0.2642
     63  O         90.5730  119.8060   48.7690 O.2   118  THR118     -0.2714
     64  CB        88.0160  118.5230   47.5760 C.3   118  THR118      0.1808
     65  OG1       87.0160  119.5280   47.3870 O.3   118  THR118     -0.2208
     66  CG2       87.4230  117.1740   47.2580 C.3   118  THR118      0.0379
     67  N         88.9130  120.8100   49.9360 N.am  119  ASP119     -0.1971
     68  CA        89.6970  122.0130   50.2300 C.3   119  ASP119      0.1709
     69  C         90.8950  121.5630   51.0610 C.2   119  ASP119      0.2293
     70  O         92.0390  121.9210   50.7730 O.2   119  ASP119     -0.2864
     71  CB        88.9070  123.0500   51.0560 C.3   119  ASP119      0.1436
     72  CG        87.7540  123.6900   50.2850 C.2   119  ASP119      0.3671
     73  OD1       87.9090  123.9810   49.0800 O.co2 119  ASP119     -0.2456
     74  OD2       86.6840  123.9250   50.8960 O.co2 119  ASP119     -0.2456
     75  N         88.9850  127.8820   43.6280 N.3   137  ILE137     -0.1231
     76  CA        87.9260  128.3590   42.7460 C.3   137  ILE137      0.1692
     77  C         86.5930  127.8560   43.2770 C.2   137  ILE137      0.2593
     78  O         86.2870  126.6680   43.2000 O.2   137  ILE137     -0.2718
     79  CB        88.1300  127.8450   41.3020 C.3   137  ILE137      0.0266
     80  CG1       89.4990  128.3030   40.7910 C.3   137  ILE137      0.0019
     81  CG2       86.9920  128.3400   40.3910 C.3   137  ILE137      0.0020
     82  CD1       89.8590  127.7780   39.4280 C.3   137  ILE137      0.0001
     83  N         85.8050  128.7740   43.8180 N.am  138  THR138     -0.1939
     84  CA        84.5060  128.4470   44.3910 C.3   138  THR138      0.2028
     85  C         83.3890  129.0880   43.5710 C.2   138  THR138      0.2642
     86  O         83.6400  129.6400   42.5040 O.2   138  THR138     -0.2714
     87  CB        84.4430  128.9400   45.8550 C.3   138  THR138      0.1808
     88  OG1       83.0950  128.8800   46.3320 O.3   138  THR138     -0.2208
     89  CG2       84.9540  130.3610   45.9570 C.3   138  THR138      0.0379
     90  N         82.1570  129.0040   44.0560 N.am  139  ASN139     -0.1957
     91  CA        81.0370  129.5940   43.3400 C.3   139  ASN139      0.1819
     92  C         80.6020  130.9220   43.9570 C.2   139  ASN139      0.2621
     93  O         79.4270  131.2960   43.9200 O.2   139  ASN139     -0.2715
     94  CB        79.8660  128.6040   43.2700 C.3   139  ASN139      0.1195
     95  CG        79.6280  127.8870   44.5770 C.2   139  ASN139      0.2630
     96  OD1       78.9890  126.8340   44.6060 O.2   139  ASN139     -0.2716
     97  ND2       80.1350  128.4520   45.6710 N.am  139  ASN139     -0.0877
     98  N         81.5820  131.6200   44.5210 N.am  140  VAL140     -0.1977
     99  CA        81.4030  132.9320   45.1310 C.3   140  VAL140      0.1596
    100  C         82.6570  133.6940   44.7150 C.2   140  VAL140      0.2287
    101  O         83.7360  133.1050   44.6330 O.2   140  VAL140     -0.2864
    102  CB        81.3160  132.8420   46.6700 C.3   140  VAL140      0.0276
    103  CG1       82.4580  132.0020   47.2100 C.3   140  VAL140      0.0022
    104  CG2       81.3560  134.2340   47.2720 C.3   140  VAL140      0.0022
    105  N         84.5650  135.6110   46.2460 N.3   142  GLY142     -0.1210
    106  CA        85.5680  135.8400   47.2690 C.3   142  GLY142      0.1956
    107  C         85.0940  135.4850   48.6610 C.2   142  GLY142      0.2612
    108  O         84.0160  134.9240   48.8320 O.2   142  GLY142     -0.2717
    109  N         85.9120  135.8050   49.6570 N.am  143  VAL143     -0.1965
    110  CA        85.5790  135.5390   51.0510 C.3   143  VAL143      0.1727
    111  C         84.9400  136.8030   51.6150 C.2   143  VAL143      0.2616
    112  O         85.5470  137.8750   51.5990 O.2   143  VAL143     -0.2715
    113  CB        86.8390  135.1990   51.8720 C.3   143  VAL143      0.0290
    114  CG1       86.4530  134.8700   53.3040 C.3   143  VAL143      0.0023
    115  CG2       87.5740  134.0330   51.2330 C.3   143  VAL143      0.0023
    116  N         83.7110  136.6770   52.1030 N.am  144  TYR144     -0.1974
    117  CA        82.9880  137.8180   52.6500 C.3   144  TYR144      0.1639
    118  C         82.9320  137.8240   54.1710 C.2   144  TYR144      0.2290
    119  O         83.3840  136.8860   54.8290 O.2   144  TYR144     -0.2864
    120  CB        81.5630  137.8500   52.0860 C.3   144  TYR144      0.0560
    121  CG        81.4600  138.3800   50.6700 C.ar  144  TYR144     -0.0198
    122  CD1       82.1580  137.7800   49.6200 C.ar  144  TYR144     -0.0009
    123  CD2       80.6550  139.4820   50.3810 C.ar  144  TYR144     -0.0009
    124  CE1       82.0570  138.2680   48.3160 C.ar  144  TYR144      0.0417
    125  CE2       80.5450  139.9760   49.0850 C.ar  144  TYR144      0.0417
    126  CZ        81.2480  139.3670   48.0590 C.ar  144  TYR144      0.1957
    127  OH        81.1450  139.8690   46.7820 O.3   144  TYR144     -0.2866
    128  N         80.4020  137.5370   55.7670 N.3   146  ALA146     -0.1231
    129  CA        79.4110  136.5070   56.0530 C.3   146  ALA146      0.1694
    130  C         78.9820  135.8850   54.7280 C.2   146  ALA146      0.2592
    131  O         79.5190  136.2320   53.6750 O.2   146  ALA146     -0.2718
    132  CB        78.2110  137.1170   56.7580 C.3   146  ALA146      0.0304
    133  N         78.0130  134.9760   54.7790 N.am  147  ASP147     -0.1960
    134  CA        77.5240  134.3110   53.5730 C.3   147  ASP147      0.1825
    135  C         76.8080  135.3030   52.6510 C.2   147  ASP147      0.2464
    136  O         75.6960  135.7450   52.9430 O.2   147  ASP147     -0.2730
    137  CB        76.5700  133.1800   53.9500 C.3   147  ASP147      0.1450
    138  CG        76.2700  132.2610   52.7840 C.2   147  ASP147      0.3671
    139  OD1       75.8410  132.7550   51.7180 O.co2 147  ASP147     -0.2456
    140  OD2       76.4620  131.0380   52.9390 O.co2 147  ASP147     -0.2456
    141  N         77.4390  135.6540   51.5180 N.am  148  PRO148     -0.2715
    142  CA        76.9140  136.5910   50.5170 C.3   148  PRO148      0.1536
    143  C         75.5300  136.2330   49.9900 C.2   148  PRO148      0.2598
    144  O         74.8190  137.0900   49.4650 O.2   148  PRO148     -0.2715
    145  CB        77.9630  136.5360   49.4110 C.3   148  PRO148      0.0310
    146  CG        79.2100  136.2220   50.1510 C.3   148  PRO148      0.0237
    147  CD        78.7610  135.1540   51.1070 C.3   148  PRO148      0.0939
    148  N         75.1570  134.9650   50.1160 N.am  149  LYS149     -0.1964
    149  CA        73.8560  134.5260   49.6390 C.3   149  LYS149      0.1728
    150  C         72.8040  134.6190   50.7410 C.2   149  LYS149      0.2616
    151  O         71.6080  134.4910   50.4750 O.2   149  LYS149     -0.2715
    152  CB        73.9430  133.0880   49.1190 C.3   149  LYS149      0.0311
    153  CG        74.9980  132.9840   48.0270 C.3   149  LYS149      0.0038
    154  CD        75.0650  131.5560   47.4710 C.3   149  LYS149      0.0206
    155  CE        76.1310  131.4410   46.3910 C.3   149  LYS149      0.1093
    156  NZ        77.4860  131.7400   46.9180 N.3   149  LYS149     -0.1314
    157  N         73.2540  134.8420   51.9720 N.am  150  LYS150     -0.1977
    158  CA        72.3390  134.9530   53.1010 C.3   150  LYS150      0.1596
    159  C         72.3030  136.3650   53.6990 C.2   150  LYS150      0.2287
    160  O         71.2330  136.9760   53.8170 O.2   150  LYS150     -0.2864
    161  CB        72.7320  133.9490   54.1890 C.3   150  LYS150      0.0298
    162  CG        72.7140  132.4980   53.7280 C.3   150  LYS150      0.0038
    163  CD        71.3500  131.9210   53.5760 C.3   150  LYS150      0.0206
    164  CE        71.2160  130.3980   53.4130 C.3   150  LYS150      0.1093
    165  NZ        71.5550  130.0340   52.0050 N.3   150  LYS150     -0.1314
    166  N         86.8010  133.6310   60.5560 N.3   167  ILE167     -0.1245
    167  CA        85.6150  133.5110   59.7010 C.3   167  ILE167      0.1561
    168  C         85.0320  132.1030   59.8030 C.2   167  ILE167      0.2260
    169  O         83.8550  131.9170   60.1290 O.2   167  ILE167     -0.2867
    170  CB        85.9520  133.7720   58.2190 C.3   167  ILE167      0.0252
    171  CG1       86.7770  135.0520   58.0900 C.3   167  ILE167      0.0019
    172  CG2       84.6770  133.8630   57.4010 C.3   167  ILE167      0.0019
    173  CD1       86.0660  136.3060   58.5410 C.3   167  ILE167      0.0001
    174  N         78.4470  119.0960   54.0000 N.3   177  SER177     -0.1202
    175  CA        78.5500  120.4920   54.3950 C.3   177  SER177      0.2020
    176  C         79.4140  121.2510   53.4020 C.2   177  SER177      0.2619
    177  O         80.3400  120.6900   52.8240 O.2   177  SER177     -0.2717
    178  CB        79.1440  120.6100   55.8060 C.3   177  SER177      0.2103
    179  OG        79.0750  121.9500   56.2790 O.3   177  SER177     -0.2182
    180  N         79.1100  122.5310   53.2090 N.am  178  SER178     -0.1937
    181  CA        79.8650  123.3530   52.2690 C.3   178  SER178      0.2055
    182  C         80.2720  124.7080   52.8560 C.2   178  SER178      0.2644
    183  O         79.5800  125.2560   53.7160 O.2   178  SER178     -0.2714
    184  CB        79.0450  123.5590   50.9890 C.3   178  SER178      0.2130
    185  OG        77.7880  124.1440   51.2690 O.3   178  SER178     -0.2179
    186  N         81.3990  125.2350   52.3800 N.am  179  SER179     -0.1935
    187  CA        81.9330  126.5180   52.8360 C.3   179  SER179      0.2055
    188  C         82.9890  127.0290   51.8580 C.2   179  SER179      0.2642
    189  O         83.4460  126.2840   50.9940 O.2   179  SER179     -0.2714
    190  CB        82.5580  126.3550   54.2210 C.3   179  SER179      0.2130
    191  OG        83.4420  125.2440   54.2400 O.3   179  SER179     -0.2179
    192  N         83.3800  128.2920   51.9940 N.am  180  VAL180     -0.1977
    193  CA        84.3910  128.8660   51.1070 C.3   180  VAL180      0.1596
    194  C         85.6770  128.0680   51.2090 C.2   180  VAL180      0.2287
    195  O         86.3680  127.8480   50.2160 O.2   180  VAL180     -0.2864
    196  CB        84.7380  130.3200   51.4720 C.3   180  VAL180      0.0276
    197  CG1       84.4840  131.2240   50.2750 C.3   180  VAL180      0.0022
    198  CG2       83.9530  130.7580   52.6890 C.3   180  VAL180      0.0022
@<TRIPOS>BOND
     1    26    25    2
     2    25    24    1
     3    28    27    1
     4    82    80    1
     5    24    27    1
     6    24    23    1
     7    27    29    1
     8    20    19    2
     9    81    79    1
    10    16    15    2
    11    23    19   am
    12    80    79    1
    13    19    18    1
    14    12    11    2
    15    79    76    1
    16    15    14    1
    17    15    17   am
    18    18    17    1
    19    18    21    1
    20    14    13    1
    21    11    13   am
    22    11    10    1
    23    86    85    2
    24    76    77    1
    25    76    75    1
    26    33    32    2
    27     9    10    1
    28    21    22    1
    29    78    77    2
    30    37    36    2
    31    94    91    1
    32    94    95    1
    33    77    83   am
    34    91    92    1
    35    91    90    1
    36    30    31    1
    37     1     2    1
    38    85    90   am
    39    85    84    1
    40     3     4    2
    41     3     2    1
    42    83    84    1
    43    93    92    2
    44    92    98   am
    45    32    31    1
    46    32    34   am
    47    36    35    1
    48    36    38   am
    49     2     5    1
    50    39    40    1
    51    39    38    1
    52    84    87    1
    53    98    99    1
    54    35    34    1
    55    95    96    2
    56    95    97   am
    57    40    41    2
    58   101   100    2
    59   100    99    1
    60    99   102    1
    61     5     6    1
    62    87    89    1
    63    87    88    1
    64     7     6   ar
    65   105   106    1
    66   155   156    1
    67   155   154    1
    68     6     8   ar
    69    52    50    1
    70   102   103    1
    71   102   104    1
    72   127   126    1
    73    42    43    1
    74    66    64    1
    75   106   107    1
    76    65    64    1
    77   154   153    1
    78    50    51    1
    79    50    49    2
    80    64    61    1
    81    44    43    1
    82    44    45    2
    83   153   152    1
    84   126   124   ar
    85   126   125   ar
    86    43    46    1
    87    46    47    1
    88   124   122   ar
    89    49    48    1
    90   107   108    2
    91   107   109   am
    92    63    62    2
    93    61    62    1
    94    61    60    1
    95    73    72   ar
    96   125   123   ar
    97    47    48    1
    98   152   149    1
    99    62    67   am
   100   145   146    1
   101   145   142    1
   102   144   143    2
   103   122   121   ar
   104   149   148    1
   105   149   150    1
   106   109   110    1
   107    67    68    1
   108   143   148   am
   109   143   142    1
   110    60    55   am
   111   146   147    1
   112   195   194    2
   113    68    71    1
   114    68    69    1
   115   197   196    1
   116    72    74   ar
   117    72    71    1
   118   123   121   ar
   119   151   150    2
   120   142   141    1
   121   121   120    1
   122   150   157   am
   123    70    69    2
   124   184   185    1
   125   184   181    1
   126   189   188    2
   127   110   111    1
   128   110   113    1
   129   193   194    1
   130   193   196    1
   131   193   192    1
   132   147   141    1
   133    59    57    1
   134   115   113    1
   135    55    56    2
   136    55    54    1
   137   196   198    1
   138   141   135   am
   139   112   111    2
   140   111   116   am
   141   139   138   ar
   142   188   192   am
   143   188   187    1
   144   113   114    1
   145   157   158    1
   146   165   164    1
   147    58    57    1
   148   120   117    1
   149   116   117    1
   150    54    57    1
   151    54    53    1
   152   181   182    1
   153   181   180    1
   154   186   187    1
   155   186   182   am
   156   117   118    1
   157   135   136    2
   158   135   134    1
   159   138   140   ar
   160   138   137    1
   161   177   176    2
   162   187   190    1
   163   182   183    2
   164   158   159    1
   165   158   161    1
   166   180   176   am
   167   176   175    1
   168   164   163    1
   169   134   137    1
   170   134   133    1
   171   163   162    1
   172   131   130    2
   173   159   160    2
   174   162   161    1
   175   174   175    1
   176   118   119    2
   177   190   191    1
   178   175   178    1
   179   130   133   am
   180   130   129    1
   181   128   129    1
   182   178   179    1
   183   129   132    1
   184   172   170    1
   185   171   170    1
   186   171   173    1
   187   170   167    1
   188   167   168    1
   189   167   166    1
   190   168   169    2
