@<TRIPOS>MOLECULE
tmp/2bmuB01.pdb
 156 148 0 0 0
SMALL
GASTEIGER

@<TRIPOS>ATOM
      1  N         83.4190  121.3300   42.9890 N.3     9  GLY9       -0.1225
      2  CA        82.5800  120.4610   42.1840 C.3     9  GLY9        0.1811
      3  C         81.3570  121.1550   41.6210 C.2     9  GLY9        0.2280
      4  O         80.9240  120.8530   40.5100 O.2     9  GLY9       -0.2866
      5  N         86.1870  119.0530   43.4400 N.3    43  GLY43      -0.1210
      6  CA        85.1780  118.7670   44.4460 C.3    43  GLY43       0.1956
      7  C         83.9990  117.9370   43.9700 C.2    43  GLY43       0.2612
      8  O         83.9530  117.5150   42.8130 O.2    43  GLY43      -0.2717
      9  N         83.0310  117.7270   44.8640 N.am   44  GLY44      -0.1942
     10  CA        81.8670  116.9160   44.5420 C.3    44  GLY44       0.2014
     11  C         80.6280  117.6550   44.0930 C.2    44  GLY44       0.2639
     12  O         79.8890  117.1730   43.2330 O.2    44  GLY44      -0.2714
     13  N         80.3780  118.8050   44.7060 N.am   45  GLY45      -0.1954
     14  CA        79.2330  119.6160   44.3340 C.3    45  GLY45       0.1869
     15  C         77.8520  119.0400   44.5800 C.2    45  GLY45       0.2309
     16  O         77.6610  118.1650   45.4170 O.2    45  GLY45      -0.2863
     17  N         77.3020  115.2020   44.6870 N.3    48  ALA48      -0.1231
     18  CA        77.7870  114.5460   45.8920 C.3    48  ALA48       0.1694
     19  C         76.7650  114.6850   47.0050 C.2    48  ALA48       0.2591
     20  O         76.5220  113.7350   47.7510 O.2    48  ALA48      -0.2718
     21  CB        79.1140  115.1470   46.3280 C.3    48  ALA48       0.0304
     22  N         76.1660  115.8670   47.1240 N.am   49  ARG49      -0.1980
     23  CA        75.1740  116.0830   48.1610 C.3    49  ARG49       0.1597
     24  C         73.9290  115.2400   47.9100 C.2    49  ARG49       0.2287
     25  O         73.2920  114.7720   48.8590 O.2    49  ARG49      -0.2864
     26  CB        74.8360  117.5720   48.2840 C.3    49  ARG49       0.0334
     27  CG        75.8810  118.3190   49.1030 C.3    49  ARG49       0.0492
     28  CD        75.4900  119.7430   49.4720 C.3    49  ARG49       0.2205
     29  NE        75.8170  120.7000   48.4200 N.pl3  49  ARG49      -0.0865
     30  CZ        74.9540  121.1290   47.5070 C.cat  49  ARG49       0.5346
     31  NH1       73.7020  120.6880   47.5220 N.pl3  49  ARG49       0.1354
     32  NH2       75.3430  121.9930   46.5780 N.pl3  49  ARG49       0.1354
     33  N         74.7880  111.7830   49.1350 N.3    52  ILE52      -0.1245
     34  CA        74.9290  111.8050   50.5840 C.3    52  ILE52       0.1561
     35  C         73.5470  111.9200   51.2270 C.2    52  ILE52       0.2260
     36  O         73.3080  111.3580   52.2910 O.2    52  ILE52      -0.2867
     37  CB        75.8200  112.9800   51.0410 C.3    52  ILE52       0.0252
     38  CG1       77.2370  112.7840   50.4940 C.3    52  ILE52       0.0019
     39  CG2       75.8320  113.0740   52.5660 C.3    52  ILE52       0.0019
     40  CD1       78.2130  113.8900   50.8670 C.3    52  ILE52       0.0001
     41  N         80.8760  110.3510   53.8630 N.3    66  ASP66      -0.1239
     42  CA        82.1210  110.9890   53.4330 C.3    66  ASP66       0.1674
     43  C         82.7310  110.1870   52.2820 C.2    66  ASP66       0.2266
     44  O         83.1930  110.7590   51.2900 O.2    66  ASP66      -0.2867
     45  CB        83.1270  111.0600   54.5880 C.3    66  ASP66       0.1410
     46  CG        82.8840  112.2520   55.5130 C.2    66  ASP66       0.3668
     47  OD1       82.0040  113.0830   55.2160 O.co2  66  ASP66      -0.2456
     48  OD2       83.5910  112.3740   56.5340 O.co2  66  ASP66      -0.2456
     49  N         80.8540  110.6670   49.2150 N.3    69  GLY69      -0.1210
     50  CA        81.2250  111.9810   48.7330 C.3    69  GLY69       0.1956
     51  C         82.5360  111.8850   47.9800 C.2    69  GLY69       0.2611
     52  O         82.6990  112.4600   46.8990 O.2    69  GLY69      -0.2717
     53  N         83.4740  111.1390   48.5570 N.am   70  ILE70      -0.1979
     54  CA        84.7860  110.9540   47.9530 C.3    70  ILE70       0.1595
     55  C         84.6760  110.2890   46.5890 C.2    70  ILE70       0.2287
     56  O         85.3510  110.6820   45.6390 O.2    70  ILE70      -0.2864
     57  CB        85.6890  110.1200   48.8860 C.3    70  ILE70       0.0276
     58  CG1       86.1230  110.9900   50.0740 C.3    70  ILE70       0.0022
     59  CG2       86.9030  109.6110   48.1390 C.3    70  ILE70       0.0022
     60  CD1       86.7620  110.2210   51.2170 C.3    70  ILE70       0.0001
     61  N         83.6660  112.8560   43.9870 N.3    73  THR73      -0.1218
     62  CA        84.7340  113.7980   43.6760 C.3    73  THR73       0.1862
     63  C         85.6780  113.1680   42.6680 C.2    73  THR73       0.2287
     64  O         86.1770  113.8490   41.7750 O.2    73  THR73      -0.2866
     65  CB        85.5690  114.2160   44.9370 C.3    73  THR73       0.1770
     66  OG1       86.2930  113.0850   45.4380 O.3    73  THR73      -0.2211
     67  CG2       84.6700  114.7660   46.0340 C.3    73  THR73       0.0375
     68  N         88.9390  113.4550   46.5810 N.3   111  GLY111     -0.1210
     69  CA        89.0680  113.3560   48.0180 C.3   111  GLY111      0.1956
     70  C         90.0460  112.2930   48.4710 C.2   111  GLY111      0.2613
     71  O         90.5420  111.5040   47.6680 O.2   111  GLY111     -0.2717
     72  N         90.3260  112.2670   49.7680 N.am  112  THR112     -0.1938
     73  CA        91.2430  111.2790   50.3100 C.3   112  THR112      0.2028
     74  C         90.6330  110.4600   51.4420 C.2   112  THR112      0.2642
     75  O         90.3280  109.2840   51.2690 O.2   112  THR112     -0.2714
     76  CB        92.5370  111.9390   50.8230 C.3   112  THR112      0.1808
     77  OG1       92.2050  113.0570   51.6490 O.3   112  THR112     -0.2208
     78  CG2       93.3990  112.4010   49.6620 C.3   112  THR112      0.0379
     79  N         90.4490  111.0870   52.5960 N.am  113  HIS113     -0.1959
     80  CA        89.8700  110.4010   53.7410 C.3   113  HIS113      0.1772
     81  C         88.7370  111.2280   54.3450 C.2   113  HIS113      0.2462
     82  O         88.6680  112.4410   54.1570 O.2   113  HIS113     -0.2730
     83  CB        90.9500  110.1150   54.7910 C.3   113  HIS113      0.0785
     84  CG        91.9850  109.1290   54.3410 C.ar  113  HIS113      0.0821
     85  ND1       91.8820  108.4250   53.1600 N.ar  113  HIS113     -0.2267
     86  CD2       93.1480  108.7320   54.9120 C.ar  113  HIS113      0.1154
     87  CE1       92.9360  107.6410   53.0210 C.ar  113  HIS113      0.1986
     88  NE2       93.7200  107.8090   54.0700 N.ar  113  HIS113     -0.2212
     89  N         87.8320  110.5720   55.0860 N.am  114  PRO114     -0.2727
     90  CA        86.6850  111.2430   55.7190 C.3   114  PRO114      0.1402
     91  C         87.1050  112.3210   56.7110 C.2   114  PRO114      0.2269
     92  O         88.2870  112.4530   57.0340 O.2   114  PRO114     -0.2865
     93  CB        85.9550  110.1030   56.4300 C.3   114  PRO114      0.0296
     94  CG        86.3450  108.8780   55.6340 C.3   114  PRO114      0.0237
     95  CD        87.8040  109.1210   55.3510 C.3   114  PRO114      0.0939
     96  N         86.7440  115.6400   56.3180 N.3   116  HIS116     -0.1226
     97  CA        86.9560  116.9500   55.7260 C.3   116  HIS116      0.1752
     98  C         86.4290  117.0680   54.3050 C.2   116  HIS116      0.2597
     99  O         85.6230  116.2550   53.8510 O.2   116  HIS116     -0.2718
    100  CB        88.4370  117.3190   55.7570 C.3   116  HIS116      0.0759
    101  CG        89.3300  116.2910   55.1410 C.ar  116  HIS116      0.0818
    102  ND1       90.0390  115.3770   55.8910 N.ar  116  HIS116     -0.2268
    103  CD2       89.6480  116.0450   53.8480 C.ar  116  HIS116      0.1154
    104  CE1       90.7590  114.6150   55.0850 C.ar  116  HIS116      0.1986
    105  NE2       90.5410  115.0010   53.8400 N.ar  116  HIS116     -0.2212
    106  N         86.9110  118.0870   53.6060 N.am  117  THR117     -0.1939
    107  CA        86.4900  118.3820   52.2470 C.3   117  THR117      0.2028
    108  C         87.6840  118.3610   51.2960 C.2   117  THR117      0.2642
    109  O         88.8170  118.1600   51.7310 O.2   117  THR117     -0.2714
    110  CB        85.7700  119.7630   52.2610 C.3   117  THR117      0.1808
    111  OG1       84.3670  119.5560   52.0850 O.3   117  THR117     -0.2208
    112  CG2       86.3100  120.7190   51.2020 C.3   117  THR117      0.0379
    113  N         87.4380  118.5400   50.0020 N.am  118  THR118     -0.1950
    114  CA        88.5320  118.5600   49.0400 C.3   118  THR118      0.1897
    115  C         89.4300  119.7900   49.2420 C.2   118  THR118      0.2313
    116  O         90.5730  119.8060   48.7690 O.2   118  THR118     -0.2863
    117  CB        88.0160  118.5230   47.5760 C.3   118  THR118      0.1794
    118  OG1       87.0160  119.5280   47.3870 O.3   118  THR118     -0.2208
    119  CG2       87.4230  117.1740   47.2580 C.3   118  THR118      0.0378
    120  N         92.2190  118.7250   51.1750 N.3   121  VAL121     -0.1245
    121  CA        93.1080  117.9380   50.3270 C.3   121  VAL121      0.1561
    122  C         94.0070  118.8920   49.5480 C.2   121  VAL121      0.2260
    123  O         95.2070  118.6680   49.4220 O.2   121  VAL121     -0.2867
    124  CB        92.3140  117.0580   49.3080 C.3   121  VAL121      0.0252
    125  CG1       93.2710  116.3700   48.3500 C.3   121  VAL121      0.0019
    126  CG2       91.4810  116.0150   50.0480 C.3   121  VAL121      0.0019
    127  N         79.7400  118.5660   58.5920 N.3   174  LYS174     -0.1231
    128  CA        79.1070  117.2700   58.3880 C.3   174  LYS174      0.1693
    129  C         79.3550  116.8140   56.9560 C.2   174  LYS174      0.2592
    130  O         79.8340  117.5910   56.1440 O.2   174  LYS174     -0.2718
    131  CB        77.5970  117.3640   58.6360 C.3   174  LYS174      0.0285
    132  CG        77.2100  117.7780   60.0490 C.3   174  LYS174      0.0035
    133  CD        75.7640  117.3960   60.3630 C.3   174  LYS174      0.0206
    134  CE        75.5610  115.8830   60.2880 C.3   174  LYS174      0.1093
    135  NZ        74.1560  115.4640   60.5630 N.3   174  LYS174     -0.1314
    136  N         79.0210  115.5620   56.6540 N.am  175  ALA175     -0.1966
    137  CA        79.2150  115.0350   55.3190 C.3   175  ALA175      0.1728
    138  C         78.2140  115.7810   54.4590 C.2   175  ALA175      0.2617
    139  O         77.0120  115.7470   54.7230 O.2   175  ALA175     -0.2715
    140  CB        78.9480  113.5530   55.2970 C.3   175  ALA175      0.0334
    141  N         78.7230  116.4740   53.4430 N.am  176  GLY176     -0.1940
    142  CA        77.8520  117.2370   52.5620 C.3   176  GLY176      0.2014
    143  C         77.8990  118.7290   52.8420 C.2   176  GLY176      0.2640
    144  O         77.4600  119.5350   52.0180 O.2   176  GLY176     -0.2714
    145  N         78.4470  119.0960   54.0000 N.am  177  SER177     -0.1935
    146  CA        78.5500  120.4920   54.3950 C.3   177  SER177      0.2055
    147  C         79.4140  121.2510   53.4020 C.2   177  SER177      0.2643
    148  O         80.3400  120.6900   52.8240 O.2   177  SER177     -0.2714
    149  CB        79.1440  120.6100   55.8060 C.3   177  SER177      0.2130
    150  OG        79.0750  121.9500   56.2790 O.3   177  SER177     -0.2179
    151  N         79.1100  122.5310   53.2090 N.am  178  SER178     -0.1949
    152  CA        79.8650  123.3530   52.2690 C.3   178  SER178      0.1924
    153  C         80.2720  124.7080   52.8560 C.2   178  SER178      0.2314
    154  O         79.5800  125.2560   53.7160 O.2   178  SER178     -0.2863
    155  CB        79.0450  123.5590   50.9890 C.3   178  SER178      0.2116
    156  OG        77.7880  124.1440   51.2690 O.3   178  SER178     -0.2180
@<TRIPOS>BOND
     1     4     3    2
     2     3     2    1
     3    64    63    2
     4     2     1    1
     5    63    62    1
     6     8     7    2
     7    12    11    2
     8     5     6    1
     9    62    61    1
    10    62    65    1
    11     7     6    1
    12     7     9   am
    13    11    10    1
    14    11    13   am
    15    14    15    1
    16    14    13    1
    17    10     9    1
    18    15    16    2
    19    17    18    1
    20    65    66    1
    21    65    67    1
    22    56    55    2
    23    18    21    1
    24    18    19    1
    25    32    30    1
    26    68    69    1
    27    55    54    1
    28    52    51    2
    29    19    22   am
    30    19    20    2
    31    22    23    1
    32   119   117    1
    33   118   117    1
    34    30    31    1
    35    30    29    2
    36   117   114    1
    37    71    70    2
    38    24    23    1
    39    24    25    2
    40    54    53    1
    41    54    57    1
    42    51    53   am
    43    51    50    1
    44    69    70    1
    45    59    57    1
    46    23    26    1
    47    26    27    1
    48   125   124    1
    49    29    28    1
    50    70    72   am
    51    50    49    1
    52   116   115    2
    53    57    58    1
    54   114   115    1
    55   114   113    1
    56    27    28    1
    57    33    34    1
    58   124   126    1
    59   124   121    1
    60   123   122    2
    61   122   121    1
    62    78    76    1
    63    72    73    1
    64   113   108   am
    65    58    60    1
    66    73    76    1
    67    73    74    1
    68   121   120    1
    69    38    40    1
    70    38    37    1
    71    34    37    1
    72    34    35    1
    73    76    77    1
    74   155   156    1
    75   155   152    1
    76    37    39    1
    77   112   110    1
    78    35    36    2
    79    75    74    2
    80    44    43    2
    81   108   109    2
    82   108   107    1
    83    74    79   am
    84   144   143    2
    85   111   110    1
    86   107   110    1
    87   107   106    1
    88   152   153    1
    89   152   151    1
    90    43    42    1
    91   142   143    1
    92   142   141    1
    93    79    80    1
    94   148   147    2
    95   143   145   am
    96   153   154    2
    97    87    85   ar
    98    87    88   ar
    99    85    84   ar
   100   151   147   am
   101   147   146    1
   102    42    41    1
   103    42    45    1
   104   141   138   am
   105   106    98   am
   106    80    81    1
   107    80    83    1
   108   105   103   ar
   109   105   104   ar
   110   103   101   ar
   111    99    98    2
   112   145   146    1
   113    88    86   ar
   114    82    81    2
   115    98    97    1
   116    84    83    1
   117    84    86   ar
   118    81    89   am
   119   146   149    1
   120   138   139    2
   121   138   137    1
   122    45    46    1
   123   104   102   ar
   124    89    95    1
   125    89    90    1
   126   101   100    1
   127   101   102   ar
   128    47    46   ar
   129   140   137    1
   130   137   136    1
   131    95    94    1
   132    46    48   ar
   133    94    93    1
   134    90    93    1
   135    90    91    1
   136    97   100    1
   137    97    96    1
   138   149   150    1
   139   130   129    2
   140   136   129   am
   141    91    92    2
   142   129   128    1
   143   128   127    1
   144   128   131    1
   145   131   132    1
   146   132   133    1
   147   134   133    1
   148   134   135    1
