@<TRIPOS>MOLECULE
tmp/2bmzB01.pdb
 66 62 0 0 0
SMALL
GASTEIGER

@<TRIPOS>ATOM
      1  N         32.4990   42.8530   38.6970 N.3    10  ASN10      -0.1225
      2  CA        32.7570   43.9720   39.5970 C.3    10  ASN10       0.1785
      3  C         31.7960   43.9650   40.7790 C.2    10  ASN10       0.2598
      4  O         31.7390   44.9260   41.5460 O.2    10  ASN10      -0.2718
      5  CB        32.6160   45.3040   38.8520 C.3    10  ASN10       0.1169
      6  CG        33.5390   45.4090   37.6460 C.2    10  ASN10       0.2627
      7  OD1       34.7590   45.2570   37.7610 O.2    10  ASN10      -0.2716
      8  ND2       32.9570   45.6790   36.4800 N.am   10  ASN10      -0.0877
      9  N         31.0360   42.8840   40.9160 N.am   11  GLY11      -0.1942
     10  CA        30.0930   42.7830   42.0150 C.3    11  GLY11       0.2014
     11  C         30.7770   42.3290   43.2880 C.2    11  GLY11       0.2639
     12  O         32.0050   42.2880   43.3570 O.2    11  GLY11      -0.2714
     13  N         29.9810   41.9880   44.2970 N.am   12  GLY12      -0.1939
     14  CA        30.5330   41.5360   45.5610 C.3    12  GLY12       0.2014
     15  C         31.3850   42.5870   46.2480 C.2    12  GLY12       0.2639
     16  O         31.2570   43.7830   45.9730 O.2    12  GLY12      -0.2714
     17  N         32.2560   42.1430   47.1490 N.am   13  SER13      -0.1949
     18  CA        33.1350   43.0570   47.8720 C.3    13  SER13       0.1924
     19  C         34.5940   42.6680   47.6800 C.2    13  SER13       0.2314
     20  O         34.9290   41.4870   47.5780 O.2    13  SER13      -0.2863
     21  CB        32.8020   43.0530   49.3670 C.3    13  SER13       0.2116
     22  OG        31.4670   43.4700   49.5930 O.3    13  SER13      -0.2180
     23  N         24.8030   37.6180   37.5190 N.3    83  ALA83      -0.1245
     24  CA        26.0450   38.0710   38.1370 C.3    83  ALA83       0.1562
     25  C         27.2770   37.5310   37.4180 C.2    83  ALA83       0.2260
     26  O         27.3990   36.3260   37.1900 O.2    83  ALA83      -0.2867
     27  CB        26.0740   37.6540   39.6050 C.3    83  ALA83       0.0290
     28  N         30.4680   36.1300   37.4790 N.3    85  VAL85      -0.1245
     29  CA        31.2960   35.4510   38.4710 C.3    85  VAL85       0.1561
     30  C         32.1390   34.3570   37.8180 C.2    85  VAL85       0.2260
     31  O         31.9860   34.0730   36.6290 O.2    85  VAL85      -0.2867
     32  CB        30.4150   34.8010   39.5560 C.3    85  VAL85       0.0252
     33  CG1       29.4730   35.8340   40.1400 C.3    85  VAL85       0.0019
     34  CG2       29.6330   33.6490   38.9700 C.3    85  VAL85       0.0019
     35  N         31.1840   37.5140   47.1130 N.3   126  GLY126     -0.1210
     36  CA        29.9000   37.8210   47.7140 C.3   126  GLY126      0.1956
     37  C         29.2510   36.4840   47.9880 C.2   126  GLY126      0.2612
     38  O         29.7420   35.7160   48.8150 O.2   126  GLY126     -0.2717
     39  N         28.1590   36.1860   47.2940 N.am  127  LYS127     -0.1965
     40  CA        27.5080   34.9010   47.4810 C.3   127  LYS127      0.1728
     41  C         28.3800   33.8830   46.7570 C.2   127  LYS127      0.2616
     42  O         28.4340   32.7120   47.1300 O.2   127  LYS127     -0.2715
     43  CB        26.1020   34.9190   46.8880 C.3   127  LYS127      0.0311
     44  CG        25.2560   33.7230   47.2750 C.3   127  LYS127      0.0038
     45  CD        23.8080   33.9290   46.8560 C.3   127  LYS127      0.0206
     46  CE        22.9440   32.7470   47.2640 C.3   127  LYS127      0.1093
     47  NZ        23.3870   31.4950   46.5980 N.3   127  LYS127     -0.1314
     48  N         29.0720   34.3460   45.7190 N.am  128  PHE128     -0.1974
     49  CA        29.9700   33.4840   44.9580 C.3   128  PHE128      0.1639
     50  C         31.3070   34.1910   44.7590 C.2   128  PHE128      0.2290
     51  O         31.4950   35.3190   45.2220 O.2   128  PHE128     -0.2864
     52  CB        29.3600   33.1480   43.6030 C.3   128  PHE128      0.0560
     53  CG        27.9710   32.6100   43.6890 C.ar  128  PHE128     -0.0200
     54  CD1       26.8900   33.3800   43.2780 C.ar  128  PHE128     -0.0042
     55  CD2       27.7400   31.3340   44.1790 C.ar  128  PHE128     -0.0042
     56  CE1       25.5920   32.8840   43.3510 C.ar  128  PHE128     -0.0003
     57  CE2       26.4480   30.8260   44.2590 C.ar  128  PHE128     -0.0003
     58  CZ        25.3690   31.6040   43.8430 C.ar  128  PHE128     -0.0000
     59  N         33.1110   36.2870   42.8080 N.3   130  ASP130     -0.1239
     60  CA        32.9480   37.2520   41.7310 C.3   130  ASP130      0.1674
     61  C         34.1570   37.3600   40.8140 C.2   130  ASP130      0.2266
     62  O         34.0370   37.2420   39.5940 O.2   130  ASP130     -0.2867
     63  CB        32.6420   38.6320   42.3210 C.3   130  ASP130      0.1410
     64  CG        31.2820   38.6920   42.9840 C.2   130  ASP130      0.3668
     65  OD1       30.3560   39.2890   42.3900 O.co2 130  ASP130     -0.2456
     66  OD2       31.1370   38.1310   44.0930 O.co2 130  ASP130     -0.2456
@<TRIPOS>BOND
     1     8     6   am
     2    31    30    2
     3    26    25    2
     4    25    24    1
     5    28    29    1
     6    23    24    1
     7     6     7    2
     8     6     5    1
     9    30    29    1
    10    24    27    1
    11    29    32    1
    12     1     2    1
    13     5     2    1
    14    34    32    1
    15    32    33    1
    16    62    61    2
    17     2     3    1
    18     3     9   am
    19     3     4    2
    20    61    60    1
    21     9    10    1
    22    60    63    1
    23    60    59    1
    24    10    11    1
    25    63    64    1
    26    65    64   ar
    27    64    66   ar
    28    54    56   ar
    29    54    53   ar
    30    11    12    2
    31    11    13   am
    32    56    58   ar
    33    52    53    1
    34    52    49    1
    35    53    55   ar
    36    58    57   ar
    37    55    57   ar
    38    13    14    1
    39    50    49    1
    40    50    51    2
    41    49    48    1
    42    14    15    1
    43    48    41   am
    44    16    15    2
    45    15    17   am
    46    47    46    1
    47    41    42    2
    48    41    40    1
    49    45    46    1
    50    45    44    1
    51    43    44    1
    52    43    40    1
    53    35    36    1
    54    17    18    1
    55    39    40    1
    56    39    37   am
    57    20    19    2
    58    19    18    1
    59    36    37    1
    60    18    21    1
    61    37    38    2
    62    21    22    1
