@<TRIPOS>MOLECULE
tmp/2bmzB00.pdb
 86 83 0 0 0
SMALL
GASTEIGER

@<TRIPOS>ATOM
      1  N         32.6270   24.5840   44.5620 N.3    30  SER30      -0.1202
      2  CA        31.9010   24.8060   43.3230 C.3    30  SER30       0.2020
      3  C         30.6250   23.9850   43.1850 C.2    30  SER30       0.2619
      4  O         30.4990   22.8870   43.7360 O.2    30  SER30      -0.2717
      5  CB        32.8140   24.5160   42.1270 C.3    30  SER30       0.2103
      6  OG        33.1710   23.1420   42.0640 O.3    30  SER30      -0.2182
      7  N         29.6940   24.5380   42.4440 N.am   31  GLY31      -0.1942
      8  CA        28.4160   23.9460   42.1430 C.3    31  GLY31       0.2014
      9  C         28.1910   24.2970   40.6880 C.2    31  GLY31       0.2639
     10  O         28.8930   23.8030   39.8130 O.2    31  GLY31      -0.2714
     11  N         27.1960   25.1360   40.4160 N.am   32  ASP32      -0.1957
     12  CA        26.9860   25.5910   39.0470 C.3    32  ASP32       0.1840
     13  C         28.2310   26.4220   38.7470 C.2    32  ASP32       0.2621
     14  O         28.8720   26.2610   37.7080 O.2    32  ASP32      -0.2715
     15  CB        25.7540   26.4990   38.9250 C.3    32  ASP32       0.1450
     16  CG        24.4380   25.7470   39.0710 C.2    32  ASP32       0.3671
     17  OD1       24.4180   24.5050   38.9610 O.co2  32  ASP32      -0.2456
     18  OD2       23.4100   26.4160   39.2810 O.co2  32  ASP32      -0.2456
     19  N         28.5640   27.2980   39.6900 N.am   33  VAL33      -0.1977
     20  CA        29.7190   28.1800   39.5830 C.3    33  VAL33       0.1596
     21  C         30.7270   27.9130   40.7010 C.2    33  VAL33       0.2287
     22  O         30.6750   26.8830   41.3720 O.2    33  VAL33      -0.2864
     23  CB        29.2910   29.6560   39.6700 C.3    33  VAL33       0.0276
     24  CG1       28.3790   30.0050   38.5060 C.3    33  VAL33       0.0022
     25  CG2       28.5640   29.9120   40.9920 C.3    33  VAL33       0.0022
     26  N         31.6860   28.9140   44.1430 N.3    35  ASP35      -0.1239
     27  CA        31.1510   29.5810   45.3320 C.3    35  ASP35       0.1674
     28  C         32.1980   30.3750   46.1090 C.2    35  ASP35       0.2266
     29  O         31.9520   31.5100   46.5050 O.2    35  ASP35      -0.2867
     30  CB        30.4920   28.5460   46.2430 C.3    35  ASP35       0.1410
     31  CG        29.2600   27.9190   45.6110 C.2    35  ASP35       0.3668
     32  OD1       28.1720   28.5370   45.6470 O.co2  35  ASP35      -0.2456
     33  OD2       29.3910   26.8050   45.0670 O.co2  35  ASP35      -0.2456
     34  N         29.0760   30.6100   50.9590 N.3    55  SER55      -0.1202
     35  CA        29.1800   29.3710   51.7190 C.3    55  SER55       0.2020
     36  C         28.6720   28.1220   51.0080 C.2    55  SER55       0.2619
     37  O         28.7640   27.0140   51.5480 O.2    55  SER55      -0.2717
     38  CB        28.4390   29.5380   53.0490 C.3    55  SER55       0.2103
     39  OG        27.1690   30.1410   52.8510 O.3    55  SER55      -0.2182
     40  N         28.1430   28.2900   49.8010 N.am   56  GLY56      -0.1942
     41  CA        27.6290   27.1430   49.0760 C.3    56  GLY56       0.2014
     42  C         28.7110   26.3100   48.4260 C.2    56  GLY56       0.2639
     43  O         29.8970   26.5520   48.6280 O.2    56  GLY56      -0.2714
     44  N         28.2880   25.3050   47.6650 N.am   57  GLY57      -0.1939
     45  CA        29.2190   24.4550   46.9450 C.3    57  GLY57       0.2014
     46  C         29.8420   23.2800   47.6670 C.2    57  GLY57       0.2639
     47  O         29.7160   23.1340   48.8810 O.2    57  GLY57      -0.2714
     48  N         30.5120   22.4380   46.8860 N.am   58  THR58      -0.1950
     49  CA        31.2090   21.2580   47.3710 C.3    58  THR58       0.1897
     50  C         32.6950   21.5670   47.2400 C.2    58  THR58       0.2313
     51  O         33.1210   22.1880   46.2670 O.2    58  THR58      -0.2863
     52  CB        30.8490   20.0330   46.5240 C.3    58  THR58       0.1794
     53  OG1       29.5250   19.6140   46.8590 O.3    58  THR58      -0.2208
     54  CG2       31.8170   18.8920   46.7660 C.3    58  THR58       0.0378
     55  N         26.1960   34.4230   35.4980 N.3    80  TYR80      -0.1241
     56  CA        25.3770   33.4260   36.1590 C.3    80  TYR80       0.1605
     57  C         24.1230   34.1070   36.6840 C.2    80  TYR80       0.2264
     58  O         24.1930   34.9680   37.5590 O.2    80  TYR80      -0.2867
     59  CB        26.1820   32.8090   37.3020 C.3    80  TYR80       0.0534
     60  CG        25.4670   31.7600   38.1150 C.ar   80  TYR80      -0.0201
     61  CD1       25.1690   31.9830   39.4560 C.ar   80  TYR80      -0.0009
     62  CD2       25.1420   30.5240   37.5640 C.ar   80  TYR80      -0.0009
     63  CE1       24.5740   31.0010   40.2330 C.ar   80  TYR80       0.0417
     64  CE2       24.5460   29.5320   38.3330 C.ar   80  TYR80       0.0417
     65  CZ        24.2680   29.7780   39.6690 C.ar   80  TYR80       0.1957
     66  OH        23.7140   28.7930   40.4520 O.3    80  TYR80      -0.2866
     67  N         28.1590   36.1860   47.2940 N.3   127  LYS127     -0.1231
     68  CA        27.5080   34.9010   47.4810 C.3   127  LYS127      0.1693
     69  C         28.3800   33.8830   46.7570 C.2   127  LYS127      0.2592
     70  O         28.4340   32.7120   47.1300 O.2   127  LYS127     -0.2718
     71  CB        26.1020   34.9190   46.8880 C.3   127  LYS127      0.0285
     72  CG        25.2560   33.7230   47.2750 C.3   127  LYS127      0.0035
     73  CD        23.8080   33.9290   46.8560 C.3   127  LYS127      0.0206
     74  CE        22.9440   32.7470   47.2640 C.3   127  LYS127      0.1093
     75  NZ        23.3870   31.4950   46.5980 N.3   127  LYS127     -0.1314
     76  N         29.0720   34.3460   45.7190 N.am  128  PHE128     -0.1976
     77  CA        29.9700   33.4840   44.9580 C.3   128  PHE128      0.1639
     78  C         31.3070   34.1910   44.7590 C.2   128  PHE128      0.2290
     79  O         31.4950   35.3190   45.2220 O.2   128  PHE128     -0.2864
     80  CB        29.3600   33.1480   43.6030 C.3   128  PHE128      0.0560
     81  CG        27.9710   32.6100   43.6890 C.ar  128  PHE128     -0.0200
     82  CD1       26.8900   33.3800   43.2780 C.ar  128  PHE128     -0.0042
     83  CD2       27.7400   31.3340   44.1790 C.ar  128  PHE128     -0.0042
     84  CE1       25.5920   32.8840   43.3510 C.ar  128  PHE128     -0.0003
     85  CE2       26.4480   30.8260   44.2590 C.ar  128  PHE128     -0.0003
     86  CZ        25.3690   31.6040   43.8430 C.ar  128  PHE128     -0.0000
@<TRIPOS>BOND
     1    55    56    1
     2    56    57    1
     3    56    59    1
     4    57    58    2
     5    59    60    1
     6    62    60   ar
     7    62    64   ar
     8    14    13    2
     9    60    61   ar
    10    64    65   ar
    11    24    23    1
    12    13    12    1
    13    13    19   am
    14    15    12    1
    15    15    16    1
    16    17    16   ar
    17    12    11    1
    18    16    18   ar
    19    61    63   ar
    20    20    23    1
    21    20    19    1
    22    20    21    1
    23    65    63   ar
    24    65    66    1
    25    23    25    1
    26    10     9    2
    27    11     9   am
    28     9     8    1
    29    21    22    2
    30     6     5    1
    31     5     2    1
    32     8     7    1
    33     7     3   am
    34     3     2    1
    35     3     4    2
    36    82    84   ar
    37    82    81   ar
    38     2     1    1
    39    84    86   ar
    40    80    81    1
    41    80    77    1
    42    81    83   ar
    43    86    85   ar
    44    26    27    1
    45    83    85   ar
    46    78    77    1
    47    78    79    2
    48    77    76    1
    49    33    31   ar
    50    27    28    1
    51    27    30    1
    52    31    32   ar
    53    31    30    1
    54    76    69   am
    55    28    29    2
    56    51    50    2
    57    52    54    1
    58    52    53    1
    59    52    49    1
    60    75    74    1
    61    69    70    2
    62    69    68    1
    63    73    74    1
    64    73    72    1
    65    48    49    1
    66    48    46   am
    67    71    72    1
    68    71    68    1
    69    45    44    1
    70    45    46    1
    71    50    49    1
    72    67    68    1
    73    44    42   am
    74    46    47    2
    75    42    43    2
    76    42    41    1
    77    41    40    1
    78    40    36   am
    79    34    35    1
    80    36    37    2
    81    36    35    1
    82    35    38    1
    83    39    38    1
