@<TRIPOS>MOLECULE
tmp/2bn0A00.pdb
 66 62 0 0 0
SMALL
GASTEIGER

@<TRIPOS>ATOM
      1  N         11.3540   45.6330   28.6120 N.3    13  ASN13      -0.1225
      2  CA        12.6600   46.2330   28.3690 C.3    13  ASN13       0.1785
      3  C         13.5870   46.2680   29.5850 C.2    13  ASN13       0.2598
      4  O         14.7450   46.6750   29.4820 O.2    13  ASN13      -0.2718
      5  CB        12.4760   47.6480   27.8340 C.3    13  ASN13       0.1169
      6  CG        11.7260   47.6770   26.5190 C.2    13  ASN13       0.2627
      7  OD1       12.1700   47.0990   25.5250 O.2    13  ASN13      -0.2716
      8  ND2       10.5800   48.3520   26.5060 N.am   13  ASN13      -0.0877
      9  N         13.0840   45.8440   30.7370 N.am   14  GLY14      -0.1942
     10  CA        13.9160   45.8470   31.9260 C.3    14  GLY14       0.2014
     11  C         14.9950   44.7820   31.8810 C.2    14  GLY14       0.2639
     12  O         15.2230   44.1630   30.8410 O.2    14  GLY14      -0.2714
     13  N         15.6590   44.5690   33.0140 N.am   15  GLY15      -0.1939
     14  CA        16.7060   43.5670   33.0960 C.3    15  GLY15       0.2014
     15  C         17.9290   43.8960   32.2620 C.2    15  GLY15       0.2639
     16  O         18.0760   45.0120   31.7570 O.2    15  GLY15      -0.2714
     17  N         18.8150   42.9160   32.1260 N.am   16  SER16      -0.1949
     18  CA        20.0320   43.0830   31.3430 C.3    16  SER16       0.1924
     19  C         20.0790   42.0410   30.2350 C.2    16  SER16       0.2314
     20  O         19.7630   40.8720   30.4520 O.2    16  SER16      -0.2863
     21  CB        21.2640   42.9450   32.2380 C.3    16  SER16       0.2116
     22  OG        21.3120   43.9860   33.1950 O.3    16  SER16      -0.2180
     23  N          7.0030   45.3960   36.8270 N.3    86  ALA86      -0.1245
     24  CA         8.0260   44.8860   35.9250 C.3    86  ALA86       0.1562
     25  C          7.4160   43.9790   34.8630 C.2    86  ALA86       0.2260
     26  O          6.7550   42.9890   35.1800 O.2    86  ALA86      -0.2867
     27  CB         9.0950   44.1330   36.7170 C.3    86  ALA86       0.0290
     28  N          7.5300   41.1530   32.5870 N.3    88  VAL88      -0.1245
     29  CA         8.3050   39.9320   32.4230 C.3    88  VAL88       0.1561
     30  C          7.3920   38.8270   31.9240 C.2    88  VAL88       0.2260
     31  O          6.1870   39.0210   31.8200 O.2    88  VAL88      -0.2867
     32  CB         8.9330   39.4800   33.7620 C.3    88  VAL88       0.0252
     33  CG1        9.7420   40.6150   34.3670 C.3    88  VAL88       0.0019
     34  CG2        7.8470   39.0170   34.7250 C.3    88  VAL88       0.0019
     35  N         16.7560   39.5040   34.7820 N.3   129  GLY129     -0.1210
     36  CA        16.8660   40.3010   35.9920 C.3   129  GLY129      0.1956
     37  C         16.5550   39.3850   37.1570 C.2   129  GLY129      0.2612
     38  O         17.1090   38.2840   37.2480 O.2   129  GLY129     -0.2717
     39  N         15.6770   39.8200   38.0530 N.am  130  LYS130     -0.1965
     40  CA        15.3010   38.9690   39.1680 C.3   130  LYS130      0.1728
     41  C         14.4250   37.8810   38.5570 C.2   130  LYS130      0.2616
     42  O         14.2120   36.8200   39.1460 O.2   130  LYS130     -0.2715
     43  CB        14.5230   39.7620   40.2170 C.3   130  LYS130      0.0311
     44  CG        14.0510   38.9120   41.3870 C.3   130  LYS130      0.0038
     45  CD        13.5180   39.7500   42.5380 C.3   130  LYS130      0.0206
     46  CE        12.8950   38.8520   43.6020 C.3   130  LYS130      0.1093
     47  NZ        13.7940   37.7090   43.9500 N.3   130  LYS130     -0.1314
     48  N         13.9290   38.1700   37.3540 N.am  131  PHE131     -0.1974
     49  CA        13.0840   37.2520   36.5980 C.3   131  PHE131      0.1639
     50  C         13.4280   37.3100   35.1060 C.2   131  PHE131      0.2290
     51  O         14.3740   37.9840   34.6970 O.2   131  PHE131     -0.2864
     52  CB        11.6070   37.6010   36.7950 C.3   131  PHE131      0.0560
     53  CG        11.1950   37.7020   38.2360 C.ar  131  PHE131     -0.0200
     54  CD1       11.0150   38.9480   38.8380 C.ar  131  PHE131     -0.0042
     55  CD2       11.0090   36.5510   39.0040 C.ar  131  PHE131     -0.0042
     56  CE1       10.6570   39.0490   40.1770 C.ar  131  PHE131     -0.0003
     57  CE2       10.6500   36.6430   40.3440 C.ar  131  PHE131     -0.0003
     58  CZ        10.4740   37.8950   40.9310 C.ar  131  PHE131     -0.0000
     59  N         12.6640   38.8680   32.0910 N.3   133  ASP133     -0.1239
     60  CA        11.9950   40.0130   31.4770 C.3   133  ASP133      0.1674
     61  C         11.5500   39.7310   30.0410 C.2   133  ASP133      0.2266
     62  O         10.4070   40.0040   29.6690 O.2   133  ASP133     -0.2867
     63  CB        12.9130   41.2420   31.4800 C.3   133  ASP133      0.1410
     64  CG        13.5130   41.5250   32.8420 C.2   133  ASP133      0.3668
     65  OD1       13.5550   42.7060   33.2430 O.co2 133  ASP133     -0.2456
     66  OD2       13.9610   40.5710   33.5110 O.co2 133  ASP133     -0.2456
@<TRIPOS>BOND
     1     7     6    2
     2     8     6   am
     3     6     5    1
     4     5     2    1
     5     2     1    1
     6     2     3    1
     7     4     3    2
     8     3     9   am
     9    62    61    2
    10    61    60    1
    11    19    20    2
    12    19    18    1
    13     9    10    1
    14    12    11    2
    15    18    17    1
    16    18    21    1
    17    60    63    1
    18    60    59    1
    19    63    64    1
    20    16    15    2
    21    31    30    2
    22    11    10    1
    23    11    13   am
    24    30    29    1
    25    17    15   am
    26    21    22    1
    27    15    14    1
    28    29    28    1
    29    29    32    1
    30    64    65   ar
    31    64    66   ar
    32    13    14    1
    33    32    33    1
    34    32    34    1
    35    51    50    2
    36    35    36    1
    37    25    26    2
    38    25    24    1
    39    50    49    1
    40    24    27    1
    41    24    23    1
    42    36    37    1
    43    49    52    1
    44    49    48    1
    45    52    53    1
    46    37    38    2
    47    37    39   am
    48    48    41   am
    49    39    40    1
    50    53    54   ar
    51    53    55   ar
    52    41    42    2
    53    41    40    1
    54    54    56   ar
    55    55    57   ar
    56    40    43    1
    57    56    58   ar
    58    43    44    1
    59    57    58   ar
    60    44    45    1
    61    45    46    1
    62    46    47    1
