@<TRIPOS>MOLECULE
tmp/2bn0A01.pdb
 80 77 0 0 0
SMALL
GASTEIGER

@<TRIPOS>ATOM
      1  N          7.4030   30.3610   38.7090 N.3    34  GLY34      -0.1210
      2  CA         6.7420   30.5760   39.9820 C.3    34  GLY34       0.1956
      3  C          5.4420   31.2700   39.6250 C.2    34  GLY34       0.2612
      4  O          4.5840   30.6740   38.9710 O.2    34  GLY34      -0.2717
      5  N          5.2840   32.5210   40.0470 N.am   35  ASP35      -0.1959
      6  CA         4.0840   33.2670   39.6930 C.3    35  ASP35       0.1840
      7  C          4.3160   33.6010   38.2300 C.2    35  ASP35       0.2621
      8  O          3.3870   33.6570   37.4190 O.2    35  ASP35      -0.2715
      9  CB         3.9740   34.5790   40.4820 C.3    35  ASP35       0.1450
     10  CG         3.7830   34.3640   41.9690 C.2    35  ASP35       0.3671
     11  OD1        3.1080   33.3800   42.3520 O.co2  35  ASP35      -0.2456
     12  OD2        4.2970   35.1960   42.7530 O.co2  35  ASP35      -0.2456
     13  N          5.5930   33.8110   37.9230 N.am   36  VAL36      -0.1977
     14  CA         6.0600   34.1530   36.5920 C.3    36  VAL36       0.1596
     15  C          7.2130   33.2230   36.2120 C.2    36  VAL36       0.2287
     16  O          7.4560   32.2090   36.8750 O.2    36  VAL36      -0.2864
     17  CB         6.5700   35.5970   36.5710 C.3    36  VAL36       0.0276
     18  CG1        5.4880   36.5270   37.0480 C.3    36  VAL36       0.0022
     19  CG2        7.7860   35.7260   37.4640 C.3    36  VAL36       0.0022
     20  N         11.0190   32.6560   36.0990 N.3    38  ASP38      -0.1239
     21  CA        12.2050   33.1730   36.7720 C.3    38  ASP38       0.1674
     22  C         13.4190   33.2060   35.8640 C.2    38  ASP38       0.2266
     23  O         14.0500   34.2490   35.6940 O.2    38  ASP38      -0.2867
     24  CB        12.4820   32.3300   38.0180 C.3    38  ASP38       0.1410
     25  CG        11.4390   32.5480   39.0950 C.2    38  ASP38       0.3668
     26  OD1       11.5190   33.5850   39.7920 O.co2  38  ASP38      -0.2456
     27  OD2       10.5280   31.7020   39.2220 O.co2  38  ASP38      -0.2456
     28  N         17.3840   33.3870   39.7500 N.3    58  SER58      -0.1202
     29  CA        17.6570   32.1060   40.3970 C.3    58  SER58       0.2020
     30  C         16.4570   31.4560   41.0890 C.2    58  SER58       0.2619
     31  O         16.5180   30.2830   41.4620 O.2    58  SER58      -0.2717
     32  CB        18.7900   32.2830   41.4060 C.3    58  SER58       0.2103
     33  OG        18.5190   33.3810   42.2600 O.3    58  SER58      -0.2182
     34  N         15.3720   32.2050   41.2580 N.am   59  GLY59      -0.1942
     35  CA        14.1980   31.6470   41.9080 C.3    59  GLY59       0.2014
     36  C         13.4390   30.6230   41.0740 C.2    59  GLY59       0.2639
     37  O         13.9790   30.0470   40.1270 O.2    59  GLY59      -0.2714
     38  N         12.1840   30.3830   41.4430 N.am   60  GLY60      -0.1939
     39  CA        11.3540   29.4470   40.7090 C.3    60  GLY60       0.2014
     40  C         11.6810   27.9770   40.8450 C.2    60  GLY60       0.2639
     41  O         12.7050   27.5940   41.4030 O.2    60  GLY60      -0.2714
     42  N         10.7830   27.1540   40.3200 N.am   61  THR61      -0.1950
     43  CA        10.9170   25.7050   40.3520 C.3    61  THR61       0.1897
     44  C         11.1400   25.1920   38.9340 C.2    61  THR61       0.2313
     45  O         10.4570   25.6140   37.9960 O.2    61  THR61      -0.2863
     46  CB         9.6480   25.0530   40.9210 C.3    61  THR61       0.1794
     47  OG1        9.4200   25.5480   42.2480 O.3    61  THR61      -0.2208
     48  CG2        9.7880   23.5300   40.9480 C.3    61  THR61       0.0378
     49  N          4.4950   42.2260   36.4750 N.3    83  TYR83      -0.1241
     50  CA         4.6650   41.6040   37.7830 C.3    83  TYR83       0.1605
     51  C          5.3550   42.5450   38.7500 C.2    83  TYR83       0.2264
     52  O          6.5810   42.6480   38.7700 O.2    83  TYR83      -0.2867
     53  CB         5.4820   40.3250   37.6300 C.3    83  TYR83       0.0534
     54  CG         5.5770   39.4700   38.8640 C.ar   83  TYR83      -0.0201
     55  CD1        6.7590   39.3980   39.6000 C.ar   83  TYR83      -0.0009
     56  CD2        4.5070   38.6750   39.2570 C.ar   83  TYR83      -0.0009
     57  CE1        6.8740   38.5430   40.6930 C.ar   83  TYR83       0.0417
     58  CE2        4.6080   37.8170   40.3480 C.ar   83  TYR83       0.0417
     59  CZ         5.7920   37.7510   41.0590 C.ar   83  TYR83       0.1957
     60  OH         5.8910   36.8720   42.1140 O.3    83  TYR83      -0.2866
     61  N         15.6770   39.8200   38.0530 N.3   130  LYS130     -0.1231
     62  CA        15.3010   38.9690   39.1680 C.3   130  LYS130      0.1693
     63  C         14.4250   37.8810   38.5570 C.2   130  LYS130      0.2592
     64  O         14.2120   36.8200   39.1460 O.2   130  LYS130     -0.2718
     65  CB        14.5230   39.7620   40.2170 C.3   130  LYS130      0.0285
     66  CG        14.0510   38.9120   41.3870 C.3   130  LYS130      0.0035
     67  CD        13.5180   39.7500   42.5380 C.3   130  LYS130      0.0206
     68  CE        12.8950   38.8520   43.6020 C.3   130  LYS130      0.1093
     69  NZ        13.7940   37.7090   43.9500 N.3   130  LYS130     -0.1314
     70  N         13.9290   38.1700   37.3540 N.am  131  PHE131     -0.1976
     71  CA        13.0840   37.2520   36.5980 C.3   131  PHE131      0.1639
     72  C         13.4280   37.3100   35.1060 C.2   131  PHE131      0.2290
     73  O         14.3740   37.9840   34.6970 O.2   131  PHE131     -0.2864
     74  CB        11.6070   37.6010   36.7950 C.3   131  PHE131      0.0560
     75  CG        11.1950   37.7020   38.2360 C.ar  131  PHE131     -0.0200
     76  CD1       11.0150   38.9480   38.8380 C.ar  131  PHE131     -0.0042
     77  CD2       11.0090   36.5510   39.0040 C.ar  131  PHE131     -0.0042
     78  CE1       10.6570   39.0490   40.1770 C.ar  131  PHE131     -0.0003
     79  CE2       10.6500   36.6430   40.3440 C.ar  131  PHE131     -0.0003
     80  CZ        10.4740   37.8950   40.9310 C.ar  131  PHE131     -0.0000
@<TRIPOS>BOND
     1    73    72    2
     2    72    71    1
     3    23    22    2
     4    22    21    1
     5    20    21    1
     6    15    14    1
     7    15    16    2
     8    49    50    1
     9    17    14    1
    10    17    18    1
    11    17    19    1
    12    14    13    1
    13    71    74    1
    14    71    70    1
    15    21    24    1
    16    74    75    1
    17    70    63   am
    18     8     7    2
    19    53    50    1
    20    53    54    1
    21    50    51    1
    22    13     7   am
    23    45    44    2
    24    24    25    1
    25    61    62    1
    26     7     6    1
    27    75    76   ar
    28    75    77   ar
    29    63    64    2
    30    63    62    1
    31     1     2    1
    32    51    52    2
    33    76    78   ar
    34    54    56   ar
    35    54    55   ar
    36    44    43    1
    37     4     3    2
    38    77    79   ar
    39    25    27   ar
    40    25    26   ar
    41    62    65    1
    42    56    58   ar
    43    55    57   ar
    44     3     2    1
    45     3     5   am
    46     6     5    1
    47     6     9    1
    48    28    29    1
    49    37    36    2
    50    78    80   ar
    51    65    66    1
    52    42    43    1
    53    42    40   am
    54    79    80   ar
    55    58    59   ar
    56    43    46    1
    57    29    30    1
    58    29    32    1
    59     9    10    1
    60    57    59   ar
    61    39    40    1
    62    39    38    1
    63    40    41    2
    64    46    48    1
    65    46    47    1
    66    59    60    1
    67    36    38   am
    68    36    35    1
    69    30    34   am
    70    30    31    2
    71    34    35    1
    72    66    67    1
    73    32    33    1
    74    10    11   ar
    75    10    12   ar
    76    67    68    1
    77    68    69    1
