@<TRIPOS>MOLECULE
tmp/2bn2A01.pdb
 92 90 0 0 0
SMALL
GASTEIGER

@<TRIPOS>ATOM
      1  N         48.0520   27.7570   -6.6000 N.3    10  CYS10      -0.1235
      2  CA        48.2310   28.0920   -8.0050 C.3    10  CYS10       0.1677
      3  C         47.5900   27.0220   -8.8630 C.2    10  CYS10       0.2270
      4  O         47.0610   26.0630   -8.3250 O.2    10  CYS10      -0.2867
      5  CB        49.7100   28.2120   -8.3160 C.3    10  CYS10       0.0956
      6  SG        50.5350   29.3660   -7.1890 S.3    10  CYS10      -0.0801
      7  N         51.1350   24.1170   -8.8370 N.3    21  CYS21      -0.1221
      8  CA        52.2770   24.8810   -9.2930 C.3    21  CYS21       0.1808
      9  C         52.9130   25.7010   -8.1880 C.2    21  CYS21       0.2601
     10  O         52.2530   26.5370   -7.5660 O.2    21  CYS21      -0.2717
     11  CB        51.8490   25.7770  -10.4370 C.3    21  CYS21       0.0970
     12  SG        51.4170   24.7960  -11.8970 S.3    21  CYS21      -0.0800
     13  N         54.1840   25.4250   -7.9080 N.am   22  PHE22      -0.1962
     14  CA        54.9220   26.2040   -6.9190 C.3    22  PHE22       0.1771
     15  C         55.7100   27.3210   -7.5690 C.2    22  PHE22       0.2620
     16  O         56.0310   28.3240   -6.9330 O.2    22  PHE22      -0.2715
     17  CB        55.8530   25.3080   -6.1130 C.3    22  PHE22       0.0574
     18  CG        55.1340   24.4420   -5.1320 C.ar   22  PHE22      -0.0200
     19  CD1       54.2030   23.5080   -5.5730 C.ar   22  PHE22      -0.0042
     20  CD2       55.3010   24.6300   -3.7690 C.ar   22  PHE22      -0.0042
     21  CE1       53.4430   22.7830   -4.6850 C.ar   22  PHE22      -0.0003
     22  CE2       54.5410   23.9070   -2.8680 C.ar   22  PHE22      -0.0003
     23  CZ        53.6040   22.9780   -3.3330 C.ar   22  PHE22      -0.0000
     24  N         56.0000   27.1450   -8.8520 N.am   23  GLY23      -0.1940
     25  CA        56.5660   28.2150   -9.6510 C.3    23  GLY23       0.1998
     26  C         56.3270   27.9560  -11.1250 C.2    23  GLY23       0.2480
     27  O         55.8460   26.8750  -11.4880 O.2    23  GLY23      -0.2729
     28  N         56.7360   28.8780  -12.0070 N.am   24  PRO24      -0.2726
     29  CA        56.4850   28.7340  -13.4430 C.3    24  PRO24       0.1402
     30  C         56.9680   27.4120  -14.0280 C.2    24  PRO24       0.2269
     31  O         56.4230   26.9440  -15.0210 O.2    24  PRO24      -0.2865
     32  CB        57.2070   29.9280  -14.0650 C.3    24  PRO24       0.0296
     33  CG        58.0970   30.4540  -13.0070 C.3    24  PRO24       0.0237
     34  CD        57.4770   30.1110  -11.7030 C.3    24  PRO24       0.0939
     35  N         52.4890   25.1530  -15.5400 N.3    44  CYS44      -0.1235
     36  CA        52.6900   26.1660  -14.5030 C.3    44  CYS44       0.1677
     37  C         53.0770   27.5240  -15.0460 C.2    44  CYS44       0.2270
     38  O         53.0090   28.5280  -14.3430 O.2    44  CYS44      -0.2867
     39  CB        53.7510   25.7050  -13.5240 C.3    44  CYS44       0.0956
     40  SG        53.2150   24.2260  -12.6330 S.3    44  CYS44      -0.0801
     41  N         50.1210   30.1200  -15.0660 N.3    47  GLU47      -0.1231
     42  CA        49.7960   30.9140  -13.8880 C.3    47  GLU47       0.1699
     43  C         50.2160   32.3710  -13.9970 C.2    47  GLU47       0.2592
     44  O         49.6330   33.2370  -13.3410 O.2    47  GLU47      -0.2718
     45  CB        50.4390   30.2950  -12.6440 C.3    47  GLU47       0.0402
     46  CG        50.2330   31.0880  -11.3570 C.3    47  GLU47       0.1161
     47  CD        48.8120   31.0160  -10.8310 C.2    47  GLU47       0.3649
     48  OE1       48.2940   29.8920  -10.6590 O.co2  47  GLU47      -0.2457
     49  OE2       48.2240   32.0840  -10.5670 O.co2  47  GLU47      -0.2457
     50  N         51.2630   32.6400  -14.7680 N.am   48  ASN48      -0.1974
     51  CA        51.7560   34.0070  -14.9100 C.3    48  ASN48       0.1688
     52  C         50.8010   34.8610  -15.7210 C.2    48  ASN48       0.2292
     53  O         50.9890   36.0630  -15.8380 O.2    48  ASN48      -0.2864
     54  CB        53.1170   34.0180  -15.5860 C.3    48  ASN48       0.1181
     55  CG        54.1580   33.2560  -14.8080 C.2    48  ASN48       0.2629
     56  OD1       54.2750   33.3980  -13.5850 O.2    48  ASN48      -0.2716
     57  ND2       54.9260   32.4370  -15.5110 N.am   48  ASN48      -0.0877
     58  N         47.4940   34.7340  -14.9800 N.3    50  LEU50      -0.1245
     59  CA        46.4180   35.0630  -14.0440 C.3    50  LEU50       0.1561
     60  C         46.7370   36.2600  -13.1460 C.2    50  LEU50       0.2260
     61  O         47.7670   36.2710  -12.4640 O.2    50  LEU50      -0.2867
     62  CB        46.0780   33.8540  -13.1750 C.3    50  LEU50       0.0270
     63  CG        45.3330   32.7270  -13.8840 C.3    50  LEU50       0.0019
     64  CD1       45.0180   31.6550  -12.8880 C.3    50  LEU50       0.0001
     65  CD2       44.0510   33.2460  -14.5020 C.3    50  LEU50       0.0001
     66  N         46.0890   37.5080  -10.4300 N.3    52  SER52      -0.1203
     67  CA        45.6800   37.2190   -9.0700 C.3    52  SER52       0.2008
     68  C         46.8600   36.4870   -8.3430 C.2    52  SER52       0.2498
     69  O         47.5150   35.6410   -8.9180 O.2    52  SER52      -0.2729
     70  CB        44.4670   36.3100   -9.2270 C.3    52  SER52       0.2103
     71  OG        44.1110   35.6310   -8.0670 O.3    52  SER52      -0.2182
     72  N         47.1900   36.9740   -7.0910 N.am   53  PRO53      -0.2492
     73  CA        48.2650   36.3410   -6.2470 C.3    53  PRO53       0.1619
     74  C         47.8750   34.9430   -5.7950 C.2    53  PRO53       0.2605
     75  O         46.7540   34.7540   -5.3750 O.2    53  PRO53      -0.2715
     76  CB        48.3440   37.3120   -5.0470 C.3    53  PRO53       0.0570
     77  CG        47.2490   38.3320   -5.2100 C.2    53  PRO53      -0.0077
     78  CD        46.5670   38.1140   -6.5310 C.2    53  PRO53       0.0634
     79  N         48.7000   33.9430   -6.0830 N.am   54  CYS54      -0.1968
     80  CA        48.5990   32.5720   -5.4920 C.3    54  CYS54       0.1712
     81  C         49.8470   32.1580   -4.6780 C.2    54  CYS54       0.2296
     82  O         50.8920   32.8010   -4.7500 O.2    54  CYS54      -0.2864
     83  CB        48.3810   31.4870   -6.5680 C.3    54  CYS54       0.0983
     84  SG        49.7980   31.1890   -7.6910 S.3    54  CYS54      -0.0798
     85  N         59.6530   29.4230   -5.7020 N.3    76  ASP76      -0.1239
     86  CA        59.2590   29.4730   -7.1020 C.3    76  ASP76       0.1674
     87  C         60.4190   29.3870   -8.0830 C.2    76  ASP76       0.2266
     88  O         60.2340   29.5510   -9.2890 O.2    76  ASP76      -0.2867
     89  CB        58.4130   30.7190   -7.3690 C.3    76  ASP76       0.1410
     90  CG        59.1720   32.0120   -7.1440 C.2    76  ASP76       0.3668
     91  OD1       60.0420   32.0830   -6.2450 O.co2  76  ASP76      -0.2456
     92  OD2       58.8410   32.9920   -7.8390 O.co2  76  ASP76      -0.2456
@<TRIPOS>BOND
     1    53    52    2
     2    52    51    1
     3    54    51    1
     4    54    55    1
     5    35    36    1
     6    57    55   am
     7    41    42    1
     8    37    36    1
     9    37    38    2
    10    31    30    2
    11    58    59    1
    12    51    50    1
    13    55    56    2
    14    50    43   am
    15    36    39    1
    16    65    63    1
    17    32    29    1
    18    32    33    1
    19    59    62    1
    20    59    60    1
    21    30    29    1
    22    43    42    1
    23    43    44    2
    24    42    45    1
    25    63    62    1
    26    63    64    1
    27    39    40    1
    28    29    28    1
    29    60    61    2
    30    33    34    1
    31    45    46    1
    32    40    12    1
    33    28    34    1
    34    28    26   am
    35    12    11    1
    36    27    26    2
    37    46    47    1
    38    26    25    1
    39    47    48   ar
    40    47    49   ar
    41    11     8    1
    42    66    67    1
    43    25    24    1
    44     8     7    1
    45     8     9    1
    46    88    87    2
    47    70    67    1
    48    70    71    1
    49    67    68    1
    50    69    68    2
    51     3     4    2
    52     3     2    1
    53    24    15   am
    54    68    72   am
    55     5     2    1
    56     5     6    1
    57     9    13   am
    58     9    10    2
    59    87    86    1
    60     2     1    1
    61    13    14    1
    62    92    90   ar
    63    84     6    1
    64    84    83    1
    65    15    16    2
    66    15    14    1
    67    89    90    1
    68    89    86    1
    69    90    91   ar
    70    86    85    1
    71    72    78    1
    72    72    73    1
    73    14    17    1
    74    83    80    1
    75    78    77    2
    76    73    74    1
    77    73    76    1
    78    17    18    1
    79    79    74   am
    80    79    80    1
    81    74    75    2
    82    19    18   ar
    83    19    21   ar
    84    80    81    1
    85    77    76    1
    86    18    20   ar
    87    82    81    2
    88    21    23   ar
    89    20    22   ar
    90    23    22   ar
