@<TRIPOS>MOLECULE
tmp/2bndA00.pdb
 175 169 0 0 0
SMALL
GASTEIGER

@<TRIPOS>ATOM
      1  N         76.0090   65.0910   13.9080 N.3    11  LYS11      -0.1245
      2  CA        76.3990   65.2180   12.5180 C.3    11  LYS11       0.1561
      3  C         77.8980   65.5130   12.4690 C.2    11  LYS11       0.2260
      4  O         78.3530   66.5810   12.8880 O.2    11  LYS11      -0.2867
      5  CB        75.6070   66.3470   11.8570 C.3    11  LYS11       0.0271
      6  CG        75.5970   66.3000   10.3440 C.3    11  LYS11       0.0035
      7  CD        76.9670   66.5580    9.7820 C.3    11  LYS11       0.0206
      8  CE        76.9370   66.5560    8.2790 C.3    11  LYS11       0.1093
      9  NZ        78.2350   66.9820    7.7430 N.3    11  LYS11      -0.1314
     10  N         80.9540   65.9660   10.0090 N.3    13  SER13      -0.1202
     11  CA        81.3570   66.1750    8.6300 C.3    13  SER13       0.2020
     12  C         82.6290   65.3750    8.3620 C.2    13  SER13       0.2619
     13  O         83.3290   64.9810    9.2930 O.2    13  SER13      -0.2717
     14  CB        81.6150   67.6560    8.3870 C.3    13  SER13       0.2103
     15  OG        81.9810   67.8860    7.0380 O.3    13  SER13      -0.2182
     16  N         82.9170   65.1310    7.0890 N.am   14  GLY14      -0.1942
     17  CA        84.1080   64.3830    6.7290 C.3    14  GLY14       0.2014
     18  C         85.3840   65.0620    7.1900 C.2    14  GLY14       0.2638
     19  O         86.2700   64.4080    7.7400 O.2    14  GLY14      -0.2714
     20  N         85.4770   66.3710    6.9660 N.am   15  GLU15      -0.1977
     21  CA        86.6460   67.1550    7.3670 C.3    15  GLU15       0.1602
     22  C         87.1000   66.8370    8.7900 C.2    15  GLU15       0.2287
     23  O         88.2870   66.6830    9.0500 O.2    15  GLU15      -0.2864
     24  CB        86.3430   68.6560    7.2840 C.3    15  GLU15       0.0415
     25  CG        86.4440   69.2880    5.8980 C.3    15  GLU15       0.1163
     26  CD        85.4820   68.6770    4.8920 C.2    15  GLU15       0.3649
     27  OE1       84.2810   68.5090    5.2180 O.co2  15  GLU15      -0.2457
     28  OE2       85.9320   68.3750    3.7680 O.co2  15  GLU15      -0.2457
     29  N         79.9020   62.4410    7.3040 N.3    52  GLY52      -0.1210
     30  CA        80.0570   62.8770    5.9300 C.3    52  GLY52       0.1956
     31  C         81.2100   62.2110    5.2070 C.2    52  GLY52       0.2612
     32  O         81.7190   61.1750    5.6600 O.2    52  GLY52      -0.2717
     33  N         81.6290   62.8060    4.0880 N.am   53  GLY53      -0.1942
     34  CA        82.7150   62.2300    3.3120 C.3    53  GLY53       0.2014
     35  C         83.6640   63.2130    2.6540 C.2    53  GLY53       0.2639
     36  O         84.5090   62.8250    1.8400 O.2    53  GLY53      -0.2714
     37  N         83.5380   64.4840    3.0260 N.am   54  GLY54      -0.1954
     38  CA        84.3800   65.5300    2.4590 C.3    54  GLY54       0.1869
     39  C         85.8810   65.3010    2.4860 C.2    54  GLY54       0.2309
     40  O         86.6090   65.8850    1.6900 O.2    54  GLY54      -0.2863
     41  N         85.6500   62.1260   -0.7620 N.3    57  PHE57      -0.1227
     42  CA        85.0340   62.5090   -2.0210 C.3    57  PHE57       0.1736
     43  C         83.7110   63.2510   -1.8880 C.2    57  PHE57       0.2595
     44  O         82.9690   63.0780   -0.9220 O.2    57  PHE57      -0.2718
     45  CB        84.7560   61.2730   -2.8930 C.3    57  PHE57       0.0547
     46  CG        85.9760   60.4920   -3.2760 C.ar   57  PHE57      -0.0202
     47  CD1       86.3230   59.3340   -2.5780 C.ar   57  PHE57      -0.0042
     48  CD2       86.7650   60.8930   -4.3540 C.ar   57  PHE57      -0.0042
     49  CE1       87.4350   58.5840   -2.9500 C.ar   57  PHE57      -0.0003
     50  CE2       87.8680   60.1540   -4.7290 C.ar   57  PHE57      -0.0003
     51  CZ        88.2050   58.9930   -4.0250 C.ar   57  PHE57      -0.0000
     52  N         83.4200   64.0670   -2.8900 N.am   58  ARG58      -0.1966
     53  CA        82.1720   64.7980   -2.9660 C.3    58  ARG58       0.1729
     54  C         81.7220   64.6190   -4.4050 C.2    58  ARG58       0.2617
     55  O         82.4940   64.8300   -5.3370 O.2    58  ARG58      -0.2715
     56  CB        82.3700   66.2750   -2.6420 C.3    58  ARG58       0.0348
     57  CG        82.5100   66.5640   -1.1580 C.3    58  ARG58       0.0492
     58  CD        82.0200   67.9750   -0.8450 C.3    58  ARG58       0.2205
     59  NE        81.8880   68.2300    0.5880 N.pl3  58  ARG58      -0.0865
     60  CZ        82.9000   68.5370    1.3950 C.cat  58  ARG58       0.5346
     61  NH1       84.1350   68.6330    0.9190 N.pl3  58  ARG58       0.1354
     62  NH2       82.6770   68.7520    2.6840 N.pl3  58  ARG58       0.1354
     63  N         80.4790   64.1940   -4.5810 N.am   59  GLY59      -0.1940
     64  CA        79.9520   63.9770   -5.9160 C.3    59  GLY59       0.2014
     65  C         80.1120   65.1590   -6.8510 C.2    59  GLY59       0.2638
     66  O         80.4920   64.9920   -8.0060 O.2    59  GLY59      -0.2714
     67  N         79.8270   66.3580   -6.3650 N.am   60  ALA60      -0.1977
     68  CA        79.9450   67.5400   -7.2090 C.3    60  ALA60       0.1597
     69  C         81.3590   67.6710   -7.7640 C.2    60  ALA60       0.2287
     70  O         81.5550   67.8000   -8.9750 O.2    60  ALA60      -0.2864
     71  CB        79.5730   68.7900   -6.4210 C.3    60  ALA60       0.0319
     72  N         77.3390   62.6190  -12.5580 N.3    69  ARG69      -0.1245
     73  CA        76.9590   63.0990  -11.2470 C.3    69  ARG69       0.1563
     74  C         76.4780   61.9920  -10.3180 C.2    69  ARG69       0.2260
     75  O         76.9060   61.9220   -9.1690 O.2    69  ARG69      -0.2867
     76  CB        75.8800   64.1790  -11.3440 C.3    69  ARG69       0.0307
     77  CG        75.5970   64.8120   -9.9920 C.3    69  ARG69       0.0489
     78  CD        76.9020   65.2900   -9.3550 C.3    69  ARG69       0.2205
     79  NE        76.8100   65.4240   -7.9060 N.pl3  69  ARG69      -0.0865
     80  CZ        76.1400   66.3850   -7.2800 C.cat  69  ARG69       0.5346
     81  NH1       75.4960   67.3150   -7.9740 N.pl3  69  ARG69       0.1354
     82  NH2       76.1070   66.4090   -5.9550 N.pl3  69  ARG69       0.1354
     83  N         79.2060   59.9610   -9.0800 N.3    72  GLY72      -0.1210
     84  CA        80.0170   60.7450   -8.1760 C.3    72  GLY72       0.1956
     85  C         79.4070   60.6780   -6.7880 C.2    72  GLY72       0.2611
     86  O         80.0890   60.3780   -5.8100 O.2    72  GLY72      -0.2717
     87  N         78.1070   60.9480   -6.7060 N.am   73  ASP73      -0.1973
     88  CA        77.4040   60.9230   -5.4340 C.3    73  ASP73       0.1709
     89  C         77.3920   59.5160   -4.8340 C.2    73  ASP73       0.2293
     90  O         77.2490   59.3510   -3.6240 O.2    73  ASP73      -0.2864
     91  CB        75.9690   61.4520   -5.6000 C.3    73  ASP73       0.1436
     92  CG        75.9170   62.9720   -5.7780 C.2    73  ASP73       0.3671
     93  OD1       76.9190   63.6460   -5.4560 O.co2  73  ASP73      -0.2456
     94  OD2       74.8750   63.5030   -6.2280 O.co2  73  ASP73      -0.2456
     95  N         80.7990   59.0990   -3.3060 N.3    76  GLY76      -0.1210
     96  CA        80.8120   59.9670   -2.1470 C.3    76  GLY76       0.1956
     97  C         80.0790   59.3080   -0.9960 C.2    76  GLY76       0.2611
     98  O         80.4810   59.4290    0.1610 O.2    76  GLY76      -0.2717
     99  N         78.9920   58.6120   -1.3070 N.am   77  MET77      -0.1979
    100  CA        78.2420   57.9420   -0.2660 C.3    77  MET77       0.1605
    101  C         79.1000   56.8200    0.3020 C.2    77  MET77       0.2287
    102  O         79.2420   56.6920    1.5230 O.2    77  MET77      -0.2864
    103  CB        76.9130   57.4000   -0.8110 C.3    77  MET77       0.0413
    104  CG        75.9110   58.5090   -1.1460 C.3    77  MET77       0.0598
    105  SD        74.1680   58.0310   -1.1030 S.3    77  MET77      -0.1393
    106  CE        73.8120   57.7780   -2.8100 C.3    77  MET77       0.0692
    107  N         81.2100   58.0090    2.9520 N.3    80  THR80      -0.1218
    108  CA        80.6080   58.1740    4.2740 C.3    80  THR80       0.1862
    109  C         80.6990   56.8280    4.9890 C.2    80  THR80       0.2287
    110  O         81.0450   56.7640    6.1680 O.2    80  THR80      -0.2866
    111  CB        79.1200   58.5920    4.1980 C.3    80  THR80       0.1770
    112  OG1       78.3650   57.5580    3.5570 O.3    80  THR80      -0.2211
    113  CG2       78.9620   59.8840    3.4210 C.3    80  THR80       0.0375
    114  N         74.6120   58.3000    3.9560 N.3   133  GLY133     -0.1210
    115  CA        73.6080   59.3520    3.9630 C.3   133  GLY133      0.1956
    116  C         72.1590   58.9210    3.8180 C.2   133  GLY133      0.2612
    117  O         71.6810   58.0370    4.5300 O.2   133  GLY133     -0.2717
    118  N         71.4540   59.5760    2.9040 N.am  134  THR134     -0.1952
    119  CA        70.0550   59.2840    2.6400 C.3   134  THR134      0.1897
    120  C         69.9820   58.1270    1.6420 C.2   134  THR134      0.2313
    121  O         68.9370   57.5060    1.4670 O.2   134  THR134     -0.2863
    122  CB        69.3460   60.5060    2.0160 C.3   134  THR134      0.1794
    123  OG1       69.8970   60.7630    0.7150 O.3   134  THR134     -0.2208
    124  CG2       69.5430   61.7380    2.8810 C.3   134  THR134      0.0378
    125  N         70.4860   58.5010   -1.5760 N.3   136  ASN136     -0.1226
    126  CA        70.1880   59.0620   -2.8930 C.3   136  ASN136      0.1770
    127  C         71.1980   60.1140   -3.3450 C.2   136  ASN136      0.2439
    128  O         71.7990   60.8080   -2.5270 O.2   136  ASN136     -0.2733
    129  CB        68.8110   59.7270   -2.8880 C.3   136  ASN136      0.1168
    130  CG        67.6820   58.7370   -2.7880 C.2   136  ASN136      0.2627
    131  OD1       67.5290   57.8700   -3.6430 O.2   136  ASN136     -0.2716
    132  ND2       66.8710   58.8650   -1.7430 N.am  136  ASN136     -0.0877
    133  N         71.4050   60.2370   -4.6650 N.am  137  PRO137     -0.2718
    134  CA        72.3440   61.2400   -5.1790 C.3   137  PRO137      0.1535
    135  C         71.6890   62.6240   -5.0530 C.2   137  PRO137      0.2599
    136  O         70.4880   62.7280   -4.7870 O.2   137  PRO137     -0.2715
    137  CB        72.5250   60.8180   -6.6360 C.3   137  PRO137      0.0310
    138  CG        71.2060   60.2090   -6.9730 C.3   137  PRO137      0.0237
    139  CD        70.9270   59.3650   -5.7540 C.3   137  PRO137      0.0939
    140  N         72.4750   63.6780   -5.2380 N.am  138  PHE138     -0.1960
    141  CA        71.9690   65.0520   -5.1520 C.3   138  PHE138      0.1771
    142  C         71.5310   65.4040   -3.7390 C.2   138  PHE138      0.2620
    143  O         70.6110   66.1850   -3.5470 O.2   138  PHE138     -0.2715
    144  CB        70.7840   65.2600   -6.1100 C.3   138  PHE138      0.0574
    145  CG        71.0660   64.8460   -7.5180 C.ar  138  PHE138     -0.0200
    146  CD1       72.0130   65.5220   -8.2800 C.ar  138  PHE138     -0.0042
    147  CD2       70.4180   63.7420   -8.0730 C.ar  138  PHE138     -0.0042
    148  CE1       72.3170   65.1030   -9.5760 C.ar  138  PHE138     -0.0003
    149  CE2       70.7140   63.3120   -9.3700 C.ar  138  PHE138     -0.0003
    150  CZ        71.6680   63.9950  -10.1210 C.ar  138  PHE138     -0.0000
    151  N         72.1720   64.8060   -2.7490 N.am  139  PHE139     -0.1960
    152  CA        71.8440   65.1030   -1.3610 C.3   139  PHE139      0.1771
    153  C         73.1280   65.1850   -0.5490 C.2   139  PHE139      0.2620
    154  O         74.1700   64.6680   -0.9560 O.2   139  PHE139     -0.2715
    155  CB        70.9140   64.0390   -0.7660 C.3   139  PHE139      0.0574
    156  CG        69.4540   64.2580   -1.0770 C.ar  139  PHE139     -0.0200
    157  CD1       68.7760   63.4080   -1.9430 C.ar  139  PHE139     -0.0042
    158  CD2       68.7710   65.3440   -0.5370 C.ar  139  PHE139     -0.0042
    159  CE1       67.4370   63.6400   -2.2730 C.ar  139  PHE139     -0.0003
    160  CE2       67.4360   65.5850   -0.8600 C.ar  139  PHE139     -0.0003
    161  CZ        66.7670   64.7330   -1.7310 C.ar  139  PHE139     -0.0000
    162  N         73.0510   65.8540    0.5930 N.am  140  THR140     -0.1937
    163  CA        74.2100   66.0170    1.4620 C.3   140  THR140      0.2028
    164  C         74.0070   65.2210    2.7400 C.2   140  THR140      0.2642
    165  O         72.8700   64.9460    3.1220 O.2   140  THR140     -0.2714
    166  CB        74.3880   67.4860    1.8520 C.3   140  THR140      0.1808
    167  OG1       73.2200   67.9280    2.5620 O.3   140  THR140     -0.2208
    168  CG2       74.5950   68.3400    0.6140 C.3   140  THR140      0.0379
    169  N         75.0910   64.8520    3.4130 N.am  141  THR141     -0.1950
    170  CA        74.9160   64.1150    4.6520 C.3   141  THR141      0.1897
    171  C         74.1860   64.9860    5.6660 C.2   141  THR141      0.2313
    172  O         73.6400   64.4720    6.6390 O.2   141  THR141     -0.2863
    173  CB        76.2510   63.6160    5.2450 C.3   141  THR141      0.1794
    174  OG1       77.1630   64.7080    5.3880 O.3   141  THR141     -0.2208
    175  CG2       76.8470   62.5500    4.3480 C.3   141  THR141      0.0378
@<TRIPOS>BOND
     1    72    73    1
     2    76    73    1
     3    76    77    1
     4    73    74    1
     5    74    75    2
     6   150   148   ar
     7   150   149   ar
     8    77    78    1
     9   148   146   ar
    10   149   147   ar
    11    78    79    1
    12    83    84    1
    13    70    69    2
    14   146   145   ar
    15    84    85    1
    16   147   145   ar
    17    66    65    2
    18    81    80    1
    19    79    80    2
    20    69    68    1
    21   145   144    1
    22    80    82    1
    23    68    71    1
    24    68    67    1
    25   138   137    1
    26   138   139    1
    27    65    67   am
    28    65    64    1
    29    85    87   am
    30    85    86    2
    31    87    88    1
    32   137   134    1
    33    94    92   ar
    34   144   141    1
    35    64    63    1
    36    92    91    1
    37    92    93   ar
    38   139   133    1
    39    91    88    1
    40    88    89    1
    41    55    54    2
    42   140   141    1
    43   140   135   am
    44   134   135    1
    45   134   133    1
    46   141   142    1
    47   135   136    2
    48    89    90    2
    49    50    48   ar
    50    50    51   ar
    51   133   127   am
    52    63    54   am
    53    54    53    1
    54    48    46   ar
    55    51    49   ar
    56   142   143    2
    57   142   151   am
    58   131   130    2
    59   127   126    1
    60   127   128    2
    61    95    96    1
    62    46    45    1
    63    46    47   ar
    64    53    52    1
    65    53    56    1
    66    49    47   ar
    67    45    42    1
    68   126   129    1
    69   126   125    1
    70    52    43   am
    71   129   130    1
    72   106   105    1
    73   130   132   am
    74   151   152    1
    75    56    57    1
    76   159   157   ar
    77   159   161   ar
    78    96    97    1
    79    42    43    1
    80    42    41    1
    81   157   156   ar
    82    43    44    2
    83   161   160   ar
    84   152   155    1
    85   152   153    1
    86    99    97   am
    87    99   100    1
    88    57    58    1
    89   104   105    1
    90   104   103    1
    91   156   155    1
    92   156   158   ar
    93    97    98    2
    94   154   153    2
    95   160   158   ar
    96    58    59    1
    97   103   100    1
    98   153   162   am
    99   100   101    1
   100   101   102    2
   101    59    60    2
   102   162   163    1
   103   168   166    1
   104   123   122    1
   105    61    60    1
   106    60    62    1
   107   163   166    1
   108   163   164    1
   109   121   120    2
   110   120   119    1
   111    40    39    2
   112    36    35    2
   113   166   167    1
   114   122   119    1
   115   122   124    1
   116    38    39    1
   117    38    37    1
   118   119   118    1
   119    35    37   am
   120    35    34    1
   121   164   165    2
   122   164   169   am
   123   118   116   am
   124   107   108    1
   125    34    33    1
   126   169   170    1
   127   113   111    1
   128   112   111    1
   129    28    26   ar
   130   116   115    1
   131   116   117    2
   132   114   115    1
   133    33    31   am
   134   111   108    1
   135   108   109    1
   136   175   173    1
   137   170   173    1
   138   170   171    1
   139    26    27   ar
   140    26    25    1
   141   109   110    2
   142    31    32    2
   143    31    30    1
   144   173   174    1
   145   171   172    2
   146    25    24    1
   147    30    29    1
   148    17    16    1
   149    17    18    1
   150    20    18   am
   151    20    21    1
   152    15    14    1
   153    16    12   am
   154    18    19    2
   155    24    21    1
   156    21    22    1
   157     9     8    1
   158     8     7    1
   159    12    11    1
   160    12    13    2
   161    14    11    1
   162    11    10    1
   163    22    23    2
   164     7     6    1
   165     6     5    1
   166     5     2    1
   167     3     2    1
   168     3     4    2
   169     2     1    1
