@<TRIPOS>MOLECULE
tmp/2bneB00.pdb
 145 137 0 0 0
SMALL
GASTEIGER

@<TRIPOS>ATOM
      1  N         60.6920   63.5040   14.1420 N.3    13  LYS13      -0.1245
      2  CA        61.0930   63.7120   12.7580 C.3    13  LYS13       0.1561
      3  C         62.0350   64.9040   12.7250 C.2    13  LYS13       0.2260
      4  O         61.6190   66.0480   12.9300 O.2    13  LYS13      -0.2867
      5  CB        59.8640   63.9880   11.8850 C.3    13  LYS13       0.0271
      6  CG        60.1290   63.9970   10.3860 C.3    13  LYS13       0.0035
      7  CD        60.5010   65.3710    9.8710 C.3    13  LYS13       0.0206
      8  CE        60.7090   65.3260    8.3650 C.3    13  LYS13       0.1093
      9  NZ        60.7240   66.6810    7.7590 N.3    13  LYS13      -0.1314
     10  N         65.9490   67.8100    7.6990 N.3    16  GLY16      -0.1225
     11  CA        67.3080   67.9940    7.2240 C.3    16  GLY16       0.1811
     12  C         67.7720   69.4200    7.4020 C.2    16  GLY16       0.2280
     13  O         68.8960   69.6700    7.8340 O.2    16  GLY16      -0.2866
     14  N         65.1790   63.7630    7.9080 N.3    53  GLY53      -0.1210
     15  CA        65.0650   64.3200    6.5730 C.3    53  GLY53       0.1956
     16  C         66.3770   64.2480    5.8210 C.2    53  GLY53       0.2612
     17  O         67.3440   63.6460    6.3030 O.2    53  GLY53      -0.2717
     18  N         66.4000   64.8580    4.6380 N.am   54  GLY54      -0.1942
     19  CA        67.5920   64.8500    3.8130 C.3    54  GLY54       0.2014
     20  C         67.7360   66.1180    2.9960 C.2    54  GLY54       0.2639
     21  O         68.7500   66.3140    2.3300 O.2    54  GLY54      -0.2714
     22  N         66.7290   66.9850    3.0540 N.am   55  GLY55      -0.1954
     23  CA        66.7670   68.2310    2.3040 C.3    55  GLY55       0.1869
     24  C         67.9780   69.1260    2.5300 C.2    55  GLY55       0.2309
     25  O         68.1530   70.1270    1.8320 O.2    55  GLY55      -0.2863
     26  N         70.0070   66.8010   -0.4820 N.3    58  PHE58      -0.1227
     27  CA        69.3250   66.7200   -1.7670 C.3    58  PHE58       0.1736
     28  C         67.8120   66.6120   -1.6530 C.2    58  PHE58       0.2595
     29  O         67.3010   65.9600   -0.7500 O.2    58  PHE58      -0.2718
     30  CB        69.8200   65.5190   -2.5730 C.3    58  PHE58       0.0547
     31  CG        71.2470   65.6220   -3.0070 C.ar   58  PHE58      -0.0202
     32  CD1       72.2400   64.8990   -2.3530 C.ar   58  PHE58      -0.0042
     33  CD2       71.5990   66.4220   -4.0890 C.ar   58  PHE58      -0.0042
     34  CE1       73.5670   64.9640   -2.7710 C.ar   58  PHE58      -0.0003
     35  CE2       72.9240   66.4960   -4.5160 C.ar   58  PHE58      -0.0003
     36  CZ        73.9090   65.7610   -3.8530 C.ar   58  PHE58      -0.0000
     37  N         67.1150   67.2660   -2.5790 N.am   59  ARG59      -0.1966
     38  CA        65.6580   67.2290   -2.6680 C.3    59  ARG59       0.1729
     39  C         65.3770   66.7790   -4.0910 C.2    59  ARG59       0.2617
     40  O         65.7660   67.4570   -5.0450 O.2    59  ARG59      -0.2715
     41  CB        65.0440   68.6090   -2.4570 C.3    59  ARG59       0.0348
     42  CG        65.2440   69.1890   -1.0640 C.3    59  ARG59       0.0492
     43  CD        64.5710   70.5500   -0.9400 C.3    59  ARG59       0.2205
     44  NE        65.0460   71.3040    0.2170 N.pl3  59  ARG59      -0.0865
     45  CZ        64.8230   70.9650    1.4830 C.cat  59  ARG59       0.5346
     46  NH1       64.1240   69.8730    1.7720 N.pl3  59  ARG59       0.1354
     47  NH2       65.2960   71.7220    2.4600 N.pl3  59  ARG59       0.1354
     48  N         64.7170   65.6310   -4.2280 N.am   60  GLY60      -0.1940
     49  CA        64.4190   65.0970   -5.5420 C.3    60  GLY60       0.2014
     50  C         63.8060   66.1240   -6.4680 C.2    60  GLY60       0.2638
     51  O         64.2910   66.3380   -7.5800 O.2    60  GLY60      -0.2714
     52  N         62.7370   66.7620   -6.0070 N.am   61  ALA61      -0.1977
     53  CA        62.0540   67.7760   -6.8020 C.3    61  ALA61       0.1597
     54  C         63.0590   68.7950   -7.3120 C.2    61  ALA61       0.2287
     55  O         63.0530   69.1550   -8.4920 O.2    61  ALA61      -0.2864
     56  CB        60.9880   68.4620   -5.9640 C.3    61  ALA61       0.0319
     57  N         63.0210   62.5250  -12.0720 N.3    70  ARG70      -0.1245
     58  CA        62.5000   62.6720  -10.7240 C.3    70  ARG70       0.1563
     59  C         62.7350   61.4650   -9.8180 C.2    70  ARG70       0.2260
     60  O         63.0760   61.6340   -8.6460 O.2    70  ARG70      -0.2867
     61  CB        61.0080   63.0210  -10.7790 C.3    70  ARG70       0.0307
     62  CG        60.3380   63.1700   -9.4170 C.3    70  ARG70       0.0489
     63  CD        61.0550   64.1800   -8.5290 C.3    70  ARG70       0.2205
     64  NE        60.4730   64.2070   -7.1930 N.pl3  70  ARG70      -0.0865
     65  CZ        59.3360   64.8200   -6.8870 C.cat  70  ARG70       0.5346
     66  NH1       58.6590   65.4760   -7.8260 N.pl3  70  ARG70       0.1354
     67  NH2       58.8550   64.7500   -5.6480 N.pl3  70  ARG70       0.1354
     68  N         64.7230   61.4760   -6.3290 N.3    74  ASP74      -0.1239
     69  CA        64.1660   61.0640   -5.0530 C.3    74  ASP74       0.1674
     70  C         65.0390   59.9700   -4.4210 C.2    74  ASP74       0.2266
     71  O         65.1790   59.9090   -3.1990 O.2    74  ASP74      -0.2867
     72  CB        62.7200   60.5720   -5.2210 C.3    74  ASP74       0.1410
     73  CG        61.7250   61.7180   -5.3900 C.2    74  ASP74       0.3668
     74  OD1       62.0480   62.8590   -5.0130 O.co2  74  ASP74      -0.2456
     75  OD2       60.6060   61.4790   -5.8810 O.co2  74  ASP74      -0.2456
     76  N         67.6740   61.7300   -2.7990 N.3    77  GLY77      -0.1210
     77  CA        67.1480   62.3520   -1.6000 C.3    77  GLY77       0.1956
     78  C         67.0590   61.3410   -0.4780 C.2    77  GLY77       0.2611
     79  O         67.4570   61.6110    0.6560 O.2    77  GLY77      -0.2717
     80  N         66.5290   60.1640   -0.7870 N.am   78  MET78      -0.1979
     81  CA        66.4050   59.1400    0.2240 C.3    78  MET78       0.1605
     82  C         67.7850   58.7480    0.7410 C.2    78  MET78       0.2287
     83  O         67.9710   58.5620    1.9540 O.2    78  MET78      -0.2864
     84  CB        65.6550   57.9350   -0.3360 C.3    78  MET78       0.0413
     85  CG        64.1540   58.1730   -0.4350 C.3    78  MET78       0.0598
     86  SD        63.2400   56.6890   -0.9160 S.3    78  MET78      -0.1393
     87  CE        63.3050   56.8290   -2.6890 C.3    78  MET78       0.0692
     88  N         69.0120   60.9670    3.3320 N.3    81  THR81      -0.1218
     89  CA        68.4830   60.7660    4.6790 C.3    81  THR81       0.1862
     90  C         69.2950   59.6780    5.3840 C.2    81  THR81       0.2287
     91  O         69.4530   59.6970    6.6040 O.2    81  THR81      -0.2866
     92  CB        66.9870   60.3610    4.6870 C.3    81  THR81       0.1770
     93  OG1       66.8390   59.0170    4.1990 O.3    81  THR81      -0.2211
     94  CG2       66.1680   61.3210    3.8330 C.3    81  THR81       0.0375
     95  N         63.1190   57.4340    4.4020 N.3   134  GLY134     -0.1210
     96  CA        61.6960   57.6890    4.5130 C.3   134  GLY134      0.1956
     97  C         60.8040   56.5010    4.2330 C.2   134  GLY134      0.2612
     98  O         60.9380   55.4620    4.8610 O.2   134  GLY134     -0.2717
     99  N         59.8900   56.6560    3.2830 N.am  135  THR135     -0.1952
    100  CA        58.9470   55.5940    2.9390 C.3   135  THR135      0.1897
    101  C         59.5390   54.6070    1.9480 C.2   135  THR135      0.2313
    102  O         58.9370   53.5750    1.6580 O.2   135  THR135     -0.2863
    103  CB        57.6660   56.1720    2.2970 C.3   135  THR135      0.1794
    104  OG1       57.9520   56.5620    0.9460 O.3   135  THR135     -0.2208
    105  CG2       57.1890   57.3900    3.0640 C.3   135  THR135      0.0378
    106  N         59.7980   55.1120   -1.1110 N.3   137  ASN137     -0.1226
    107  CA        59.2530   55.3970   -2.4320 C.3   137  ASN137      0.1770
    108  C         59.4390   56.8370   -2.8790 C.2   137  ASN137      0.2439
    109  O         59.4270   57.7620   -2.0630 O.2   137  ASN137     -0.2733
    110  CB        57.7560   55.0820   -2.4770 C.3   137  ASN137      0.1168
    111  CG        57.4670   53.6040   -2.3530 C.2   137  ASN137      0.2627
    112  OD1       58.1110   52.7830   -3.0020 O.2   137  ASN137     -0.2716
    113  ND2       56.4840   53.2560   -1.5240 N.am  137  ASN137     -0.0877
    114  N         59.6290   57.0430   -4.1910 N.am  138  PRO138     -0.2729
    115  CA        59.7990   58.3970   -4.7130 C.3   138  PRO138      0.1401
    116  C         58.4320   59.0610   -4.6570 C.2   138  PRO138      0.2269
    117  O         57.4260   58.3900   -4.4210 O.2   138  PRO138     -0.2865
    118  CB        60.2620   58.1630   -6.1480 C.3   138  PRO138      0.0296
    119  CG        59.5690   56.8750   -6.5120 C.3   138  PRO138      0.0237
    120  CD        59.8100   56.0420   -5.2630 C.3   138  PRO138      0.0939
    121  N         57.3780   61.0680   -2.4260 N.3   140  PHE140     -0.1227
    122  CA        56.9590   61.2750   -1.0340 C.3   140  PHE140      0.1736
    123  C         58.0440   62.0540   -0.2990 C.2   140  PHE140      0.2596
    124  O         59.1520   62.2260   -0.8100 O.2   140  PHE140     -0.2718
    125  CB        56.7260   59.9480   -0.3210 C.3   140  PHE140      0.0547
    126  CG        55.4910   59.2330   -0.7660 C.ar  140  PHE140     -0.0202
    127  CD1       55.4220   58.6530   -2.0300 C.ar  140  PHE140     -0.0042
    128  CD2       54.3800   59.1630    0.0710 C.ar  140  PHE140     -0.0042
    129  CE1       54.2640   58.0150   -2.4570 C.ar  140  PHE140     -0.0003
    130  CE2       53.2150   58.5270   -0.3460 C.ar  140  PHE140     -0.0003
    131  CZ        53.1560   57.9520   -1.6160 C.ar  140  PHE140     -0.0000
    132  N         57.7200   62.5260    0.8970 N.am  141  THR141     -0.1939
    133  CA        58.6640   63.2910    1.7040 C.3   141  THR141      0.2028
    134  C         58.8840   62.5420    2.9990 C.2   141  THR141      0.2642
    135  O         58.1630   61.5900    3.2860 O.2   141  THR141     -0.2714
    136  CB        58.0930   64.6610    2.0560 C.3   141  THR141      0.1808
    137  OG1       56.9440   64.4850    2.9010 O.3   141  THR141     -0.2208
    138  CG2       57.6670   65.4030    0.7850 C.3   141  THR141      0.0379
    139  N         59.8730   62.9560    3.7890 N.am  142  THR142     -0.1950
    140  CA        60.0950   62.2730    5.0520 C.3   142  THR142      0.1897
    141  C         58.9310   62.5650    6.0030 C.2   142  THR142      0.2313
    142  O         58.7020   61.8120    6.9490 O.2   142  THR142     -0.2863
    143  CB        61.4100   62.6890    5.7100 C.3   142  THR142      0.1794
    144  OG1       61.4490   64.1130    5.8420 O.3   142  THR142     -0.2208
    145  CG2       62.5890   62.2050    4.8800 C.3   142  THR142      0.0378
@<TRIPOS>BOND
     1    57    58    1
     2    61    58    1
     3    61    62    1
     4    58    59    1
     5    59    60    2
     6    62    63    1
     7    63    64    1
     8    55    54    2
     9    66    65    1
    10    51    50    2
    11    54    53    1
    12    64    65    2
    13    65    67    1
    14    53    52    1
    15    53    56    1
    16   119   118    1
    17   119   120    1
    18    50    52   am
    19    50    49    1
    20    68    69    1
    21   118   115    1
    22    75    73   ar
    23    49    48    1
    24    73    72    1
    25    73    74   ar
    26   120   114    1
    27    72    69    1
    28    69    70    1
    29    40    39    2
    30   115   116    1
    31   115   114    1
    32   116   117    2
    33    35    33   ar
    34    35    36   ar
    35    70    71    2
    36    48    39   am
    37   114   108   am
    38    39    38    1
    39    33    31   ar
    40    36    34   ar
    41    31    30    1
    42    31    32   ar
    43   112   111    2
    44   108   107    1
    45   108   109    2
    46    76    77    1
    47    34    32   ar
    48    87    86    1
    49    38    37    1
    50    38    41    1
    51    37    28   am
    52    30    27    1
    53   110   107    1
    54   110   111    1
    55    41    42    1
    56   129   127   ar
    57   129   131   ar
    58   107   106    1
    59   121   122    1
    60   111   113   am
    61   127   126   ar
    62    27    28    1
    63    27    26    1
    64    28    29    2
    65   131   130   ar
    66    77    78    1
    67    42    43    1
    68   122   125    1
    69   122   123    1
    70    43    44    1
    71    86    85    1
    72   124   123    2
    73    80    78   am
    74    80    81    1
    75   126   125    1
    76   126   128   ar
    77    78    79    2
    78    85    84    1
    79   130   128   ar
    80    84    81    1
    81   123   132   am
    82    44    45    2
    83    81    82    1
    84    82    83    2
    85   138   136    1
    86   132   133    1
    87   104   103    1
    88    45    46    1
    89    45    47    1
    90   102   101    2
    91   133   136    1
    92   133   134    1
    93    25    24    2
    94   101   100    1
    95   136   137    1
    96   103   100    1
    97   103   105    1
    98    23    24    1
    99    23    22    1
   100    21    20    2
   101   100    99    1
   102    20    22   am
   103    20    19    1
   104   134   135    2
   105   134   139   am
   106    99    97   am
   107    88    89    1
   108   139   140    1
   109    19    18    1
   110    94    92    1
   111    93    92    1
   112    97    96    1
   113    97    98    2
   114    95    96    1
   115    18    16   am
   116    89    92    1
   117    89    90    1
   118   145   143    1
   119   140   143    1
   120   140   141    1
   121    90    91    2
   122   143   144    1
   123    16    17    2
   124    16    15    1
   125   141   142    2
   126    15    14    1
   127    11    12    1
   128    11    10    1
   129    12    13    2
   130     9     8    1
   131     8     7    1
   132     7     6    1
   133     6     5    1
   134     5     2    1
   135     3     2    1
   136     3     4    2
   137     2     1    1
