@<TRIPOS>MOLECULE
tmp/2bnfA00.pdb
 182 174 0 0 0
SMALL
GASTEIGER

@<TRIPOS>ATOM
      1  N        -24.3190    7.2070  -45.6550 N.3    11  LYS11      -0.1245
      2  CA       -24.5020    6.9150  -44.2510 C.3    11  LYS11       0.1561
      3  C        -25.6340    5.9130  -44.1380 C.2    11  LYS11       0.2260
      4  O        -26.7790    6.2180  -44.4820 O.2    11  LYS11      -0.2867
      5  CB       -24.8350    8.1900  -43.4710 C.3    11  LYS11       0.0271
      6  CG       -24.8420    8.0180  -41.9530 C.3    11  LYS11       0.0035
      7  CD       -26.1470    7.4560  -41.4210 C.3    11  LYS11       0.0206
      8  CE       -26.0580    7.2280  -39.9220 C.3    11  LYS11       0.1093
      9  NZ       -27.3790    6.8620  -39.3260 N.3    11  LYS11      -0.1314
     10  N        -27.8430    3.4490  -41.6960 N.3    13  SER13      -0.1202
     11  CA       -28.2530    3.2670  -40.3220 C.3    13  SER13       0.2020
     12  C        -28.0520    1.7810  -40.0620 C.2    13  SER13       0.2619
     13  O        -28.1880    0.9730  -40.9800 O.2    13  SER13      -0.2717
     14  CB       -29.7230    3.6480  -40.1730 C.3    13  SER13       0.2103
     15  OG       -30.2230    3.2960  -38.9000 O.3    13  SER13      -0.2182
     16  N        -27.7130    1.4210  -38.8290 N.am   14  GLY14      -0.1942
     17  CA       -27.4970    0.0250  -38.4990 C.3    14  GLY14       0.2014
     18  C        -28.7000   -0.8270  -38.8440 C.2    14  GLY14       0.2638
     19  O        -28.5640   -1.9970  -39.2060 O.2    14  GLY14      -0.2714
     20  N        -29.8860   -0.2400  -38.7280 N.am   15  GLU15      -0.1977
     21  CA       -31.1110   -0.9450  -39.0510 C.3    15  GLU15       0.1602
     22  C        -31.1780   -1.3290  -40.5320 C.2    15  GLU15       0.2287
     23  O        -31.9640   -2.1950  -40.9210 O.2    15  GLU15      -0.2864
     24  CB       -32.3190   -0.0830  -38.7060 C.3    15  GLU15       0.0415
     25  CG       -32.8660   -0.3090  -37.3170 C.3    15  GLU15       0.1163
     26  CD       -34.3210    0.1160  -37.2060 C.2    15  GLU15       0.3649
     27  OE1      -34.9350   -0.1530  -36.1460 O.co2  15  GLU15      -0.2457
     28  OE2      -34.8460    0.7150  -38.1830 O.co2  15  GLU15      -0.2457
     29  N        -24.0890    2.6210  -38.9350 N.3    51  GLY51      -0.1210
     30  CA       -24.4670    2.6810  -37.5300 C.3    51  GLY51       0.1956
     31  C        -24.5050    1.3320  -36.8400 C.2    51  GLY51       0.2612
     32  O        -24.0780    0.3350  -37.4120 O.2    51  GLY51      -0.2717
     33  N        -25.0170    1.2970  -35.6110 N.am   52  GLY52      -0.1942
     34  CA       -25.0770    0.0440  -34.8730 C.3    52  GLY52       0.2014
     35  C        -26.3970   -0.2530  -34.1720 C.2    52  GLY52       0.2639
     36  O        -26.4610   -1.1280  -33.3120 O.2    52  GLY52      -0.2714
     37  N        -27.4550    0.4550  -34.5480 N.am   53  GLY53      -0.1954
     38  CA       -28.7460    0.2470  -33.9160 C.3    53  GLY53       0.1869
     39  C        -29.3810   -1.1290  -34.0420 C.2    53  GLY53       0.2309
     40  O        -30.3670   -1.4120  -33.3710 O.2    53  GLY53      -0.2863
     41  N        -26.6620   -2.3950  -30.7110 N.3    56  PHE56      -0.1227
     42  CA       -26.6320   -1.6610  -29.4450 C.3    56  PHE56       0.1736
     43  C        -26.7000   -0.1410  -29.5340 C.2    56  PHE56       0.2595
     44  O        -26.3020    0.4610  -30.5290 O.2    56  PHE56      -0.2718
     45  CB       -25.3750   -2.0280  -28.6510 C.3    56  PHE56       0.0547
     46  CG       -25.4180   -3.3940  -28.0400 C.ar   56  PHE56      -0.0202
     47  CD1      -24.4230   -4.3230  -28.3190 C.ar   56  PHE56      -0.0042
     48  CD2      -26.4470   -3.7530  -27.1750 C.ar   56  PHE56      -0.0042
     49  CE1      -24.4500   -5.5940  -27.7470 C.ar   56  PHE56      -0.0003
     50  CE2      -26.4860   -5.0190  -26.5970 C.ar   56  PHE56      -0.0003
     51  CZ       -25.4870   -5.9410  -26.8820 C.ar   56  PHE56      -0.0000
     52  N        -27.2070    0.4640  -28.4630 N.am   57  ARG57      -0.1966
     53  CA       -27.3250    1.9100  -28.3300 C.3    57  ARG57       0.1729
     54  C        -26.9120    2.2340  -26.9010 C.2    57  ARG57       0.2617
     55  O        -27.4250    1.6400  -25.9550 O.2    57  ARG57      -0.2715
     56  CB       -28.7600    2.3650  -28.5680 C.3    57  ARG57       0.0348
     57  CG       -29.2340    2.1970  -29.9920 C.3    57  ARG57       0.0492
     58  CD       -30.6890    2.6260  -30.1290 C.3    57  ARG57       0.2205
     59  NE       -31.1300    2.6300  -31.5210 N.pl3  57  ARG57      -0.0865
     60  CZ       -30.5310    3.3190  -32.4870 C.cat  57  ARG57       0.5346
     61  NH1      -30.9970    3.2670  -33.7280 N.pl3  57  ARG57       0.1354
     62  NH2      -29.4630    4.0570  -32.2110 N.pl3  57  ARG57       0.1354
     63  N        -25.9770    3.1670  -26.7560 N.am   58  GLY58      -0.1940
     64  CA       -25.4780    3.5510  -25.4460 C.3    58  GLY58       0.2014
     65  C        -26.5140    4.0640  -24.4660 C.2    58  GLY58       0.2638
     66  O        -26.5280    3.6560  -23.3030 O.2    58  GLY58      -0.2714
     67  N        -27.3710    4.9690  -24.9240 N.am   59  ALA59      -0.1977
     68  CA       -28.4130    5.5340  -24.0720 C.3    59  ALA59       0.1597
     69  C        -29.3330    4.4240  -23.5860 C.2    59  ALA59       0.2287
     70  O        -29.7020    4.3850  -22.4090 O.2    59  ALA59      -0.2864
     71  CB       -29.2120    6.5770  -24.8390 C.3    59  ALA59       0.0319
     72  N        -22.9550    4.8640  -19.1200 N.3    67  ARG67      -0.1245
     73  CA       -23.1690    5.4390  -20.4410 C.3    67  ARG67       0.1563
     74  C        -21.9670    5.3600  -21.3850 C.2    67  ARG67       0.2260
     75  O        -22.1100    4.9880  -22.5420 O.2    67  ARG67      -0.2867
     76  CB       -23.6280    6.8980  -20.3080 C.3    67  ARG67       0.0307
     77  CG       -23.8950    7.5800  -21.6440 C.3    67  ARG67       0.0489
     78  CD       -24.7690    6.6960  -22.5280 C.3    67  ARG67       0.2205
     79  NE       -24.9610    7.2510  -23.8600 N.pl3  67  ARG67      -0.0865
     80  CZ       -25.5440    8.4200  -24.0970 C.cat  67  ARG67       0.5346
     81  NH1      -25.9930    9.1510  -23.0860 N.pl3  67  ARG67       0.1354
     82  NH2      -25.6700    8.8580  -25.3410 N.pl3  67  ARG67       0.1354
     83  N        -21.4960    1.9720  -22.5820 N.3    70  GLY70      -0.1210
     84  CA       -22.5890    1.6490  -23.4760 C.3    70  GLY70       0.1956
     85  C        -22.3050    2.1980  -24.8630 C.2    70  GLY70       0.2611
     86  O        -22.6080    1.5630  -25.8820 O.2    70  GLY70      -0.2717
     87  N        -21.7120    3.3850  -24.8980 N.am   71  ASP71      -0.1973
     88  CA       -21.3660    4.0160  -26.1580 C.3    71  ASP71       0.1709
     89  C        -20.1880    3.3020  -26.8290 C.2    71  ASP71       0.2293
     90  O        -20.0560    3.3380  -28.0550 O.2    71  ASP71      -0.2864
     91  CB       -21.0460    5.5090  -25.9530 C.3    71  ASP71       0.1436
     92  CG       -22.3060    6.3570  -25.7230 C.2    71  ASP71       0.3671
     93  OD1      -23.3770    5.9800  -26.2240 O.co2  71  ASP71      -0.2456
     94  OD2      -22.2270    7.4070  -25.0510 O.co2  71  ASP71      -0.2456
     95  N        -21.6900    0.3250  -28.4460 N.3    73  GLY73      -0.1225
     96  CA       -22.4190    0.7670  -29.6200 C.3    73  GLY73       0.1811
     97  C        -21.4270    0.9260  -30.7610 C.2    73  GLY73       0.2280
     98  O        -21.6020    0.3510  -31.8390 O.2    73  GLY73      -0.2866
     99  N        -20.8140   -1.0170  -34.6570 N.3    76  THR76      -0.1218
    100  CA       -20.7150   -0.3960  -35.9780 C.3    76  THR76       0.1862
    101  C        -19.5100   -0.9820  -36.6990 C.2    76  THR76       0.2287
    102  O        -19.3940   -0.8960  -37.9220 O.2    76  THR76      -0.2866
    103  CB       -20.5260    1.1400  -35.8950 C.3    76  THR76       0.1770
    104  OG1      -19.1870    1.4340  -35.5000 O.3    76  THR76      -0.2211
    105  CG2      -21.4780    1.7470  -34.8910 C.3    76  THR76       0.0375
    106  N        -16.9720    2.9240  -36.0310 N.3   124  ALA124     -0.1231
    107  CA       -16.7590    3.4880  -34.7080 C.3   124  ALA124      0.1694
    108  C        -17.0650    4.9750  -34.6400 C.2   124  ALA124      0.2593
    109  O        -16.5220    5.6970  -33.7970 O.2   124  ALA124     -0.2718
    110  CB       -15.3340    3.2140  -34.2520 C.3   124  ALA124      0.0304
    111  N        -17.9340    5.4220  -35.5390 N.am  125  GLY125     -0.1942
    112  CA       -18.3440    6.8170  -35.5770 C.3   125  GLY125      0.2014
    113  C        -17.2440    7.8470  -35.4290 C.2   125  GLY125      0.2640
    114  O        -16.3010    7.8760  -36.2060 O.2   125  GLY125     -0.2714
    115  N        -17.3670    8.7010  -34.4240 N.am  126  THR126     -0.1936
    116  CA       -16.3800    9.7450  -34.1890 C.3   126  THR126      0.2028
    117  C        -15.3140    9.2920  -33.2000 C.2   126  THR126      0.2643
    118  O        -14.3450   10.0000  -32.9650 O.2   126  THR126     -0.2714
    119  CB       -17.0350   10.9850  -33.6040 C.3   126  THR126      0.1808
    120  OG1      -17.3960   10.7180  -32.2430 O.3   126  THR126     -0.2208
    121  CG2      -18.2800   11.3540  -34.3950 C.3   126  THR126      0.0379
    122  N        -15.5000    8.1160  -32.6150 N.am  127  GLY127     -0.1939
    123  CA       -14.5440    7.6120  -31.6460 C.3   127  GLY127      0.2014
    124  C        -14.8970    8.0270  -30.2260 C.2   127  GLY127      0.2639
    125  O        -14.3160    7.5290  -29.2640 O.2   127  GLY127     -0.2714
    126  N        -15.8620    8.9260  -30.0830 N.am  128  ASN128     -0.1958
    127  CA       -16.2450    9.3910  -28.7640 C.3   128  ASN128      0.1804
    128  C        -17.6800    9.1270  -28.3890 C.2   128  ASN128      0.2463
    129  O        -18.5680    9.1270  -29.2410 O.2   128  ASN128     -0.2730
    130  CB       -16.0150   10.8990  -28.6310 C.3   128  ASN128      0.1195
    131  CG       -14.5700   11.2720  -28.7460 C.2   128  ASN128      0.2630
    132  OD1      -13.7240   10.6630  -28.1120 O.2   128  ASN128     -0.2716
    133  ND2      -14.2730   12.2840  -29.5510 N.am  128  ASN128     -0.0877
    134  N        -17.9340    8.9180  -27.0900 N.am  129  PRO129     -0.2727
    135  CA       -19.2960    8.6710  -26.6190 C.3   129  PRO129      0.1402
    136  C        -20.0540    9.9930  -26.6690 C.2   129  PRO129      0.2269
    137  O        -19.4520   11.0590  -26.8510 O.2   129  PRO129     -0.2865
    138  CB       -19.0780    8.1950  -25.1900 C.3   129  PRO129      0.0296
    139  CG       -17.8570    8.9850  -24.7750 C.3   129  PRO129      0.0237
    140  CD       -16.9680    8.8340  -25.9810 C.3   129  PRO129      0.0939
    141  N        -22.1700   10.7690  -28.8800 N.3   131  PHE131     -0.1227
    142  CA       -22.2720   11.1270  -30.2820 C.3   131  PHE131      0.1736
    143  C        -22.9490    9.9890  -31.0180 C.2   131  PHE131      0.2596
    144  O        -22.9680    8.8540  -30.5530 O.2   131  PHE131     -0.2718
    145  CB       -20.8860   11.3670  -30.8870 C.3   131  PHE131      0.0547
    146  CG       -20.3000   12.6980  -30.5400 C.ar  131  PHE131     -0.0202
    147  CD1      -19.7190   12.9160  -29.2990 C.ar  131  PHE131     -0.0042
    148  CD2      -20.3770   13.7530  -31.4380 C.ar  131  PHE131     -0.0042
    149  CE1      -19.2240   14.1730  -28.9520 C.ar  131  PHE131     -0.0003
    150  CE2      -19.8850   15.0110  -31.1000 C.ar  131  PHE131     -0.0003
    151  CZ       -19.3080   15.2190  -29.8500 C.ar  131  PHE131     -0.0000
    152  N        -23.5030   10.3040  -32.1750 N.am  132  THR132     -0.1939
    153  CA       -24.1820    9.3200  -32.9940 C.3   132  THR132      0.2028
    154  C        -23.4030    9.1600  -34.2860 C.2   132  THR132      0.2643
    155  O        -22.5500    9.9870  -34.6070 O.2   132  THR132     -0.2714
    156  CB       -25.5900    9.7990  -33.3290 C.3   132  THR132      0.1808
    157  OG1      -25.5130   11.0660  -33.9980 O.3   132  THR132     -0.2208
    158  CG2      -26.3990    9.9540  -32.0580 C.3   132  THR132      0.0379
    159  N        -23.6820    8.0990  -35.0280 N.am  133  THR133     -0.1936
    160  CA       -22.9890    7.9090  -36.2840 C.3   133  THR133      0.2028
    161  C        -23.4160    8.9830  -37.2840 C.2   133  THR133      0.2642
    162  O        -22.7070    9.2390  -38.2440 O.2   133  THR133     -0.2714
    163  CB       -23.2150    6.4930  -36.8440 C.3   133  THR133      0.1808
    164  OG1      -24.6000    6.1480  -36.7330 O.3   133  THR133     -0.2208
    165  CG2      -22.3840    5.4770  -36.0570 C.3   133  THR133      0.0379
    166  N        -24.5600    9.6290  -37.0600 N.am  134  ASP134     -0.1971
    167  CA       -24.9830   10.7200  -37.9520 C.3   134  ASP134      0.1709
    168  C        -23.9060   11.8090  -37.9000 C.2   134  ASP134      0.2293
    169  O        -23.4790   12.3140  -38.9290 O.2   134  ASP134     -0.2864
    170  CB       -26.3150   11.3400  -37.5110 C.3   134  ASP134      0.1436
    171  CG       -27.5200   10.5990  -38.0530 C.2   134  ASP134      0.3671
    172  OD1      -27.3530    9.7890  -38.9810 O.co2 134  ASP134     -0.2456
    173  OD2      -28.6470   10.8360  -37.5620 O.co2 134  ASP134     -0.2456
    174  N        -28.1480   10.2390  -46.8320 N.3   151  LYS151     -0.1245
    175  CA       -28.6860    9.5930  -45.6470 C.3   151  LYS151      0.1561
    176  C        -29.7320    8.5510  -46.0030 C.2   151  LYS151      0.2260
    177  O        -30.8640    8.8900  -46.3400 O.2   151  LYS151     -0.2867
    178  CB       -29.3060   10.6270  -44.7130 C.3   151  LYS151      0.0271
    179  CG       -29.5400   10.0670  -43.3250 C.3   151  LYS151      0.0035
    180  CD       -30.4710   10.9160  -42.4910 C.3   151  LYS151      0.0206
    181  CE       -30.5260   10.3800  -41.0700 C.3   151  LYS151      0.1093
    182  NZ       -30.7150    8.8980  -41.0410 N.3   151  LYS151     -0.1314
@<TRIPOS>BOND
     1   174   175    1
     2   177   176    2
     3   176   175    1
     4     1     2    1
     5   175   178    1
     6   178   179    1
     7     4     3    2
     8     2     3    1
     9     2     5    1
    10     5     6    1
    11   179   180    1
    12   180   181    1
    13     6     7    1
    14    10    11    1
    15     7     8    1
    16   181   182    1
    17    13    12    2
    18    23    22    2
    19    22    21    1
    20    11    14    1
    21    11    12    1
    22    14    15    1
    23    12    16   am
    24     8     9    1
    25    19    18    2
    26    21    20    1
    27    21    24    1
    28   172   171   ar
    29    29    30    1
    30   169   168    2
    31    18    20   am
    32    18    17    1
    33    16    17    1
    34    24    25    1
    35   162   161    2
    36    28    26   ar
    37   171   173   ar
    38   171   170    1
    39   167   168    1
    40   167   170    1
    41   167   166    1
    42   102   101    2
    43    30    31    1
    44    32    31    2
    45    25    26    1
    46   161   166   am
    47   161   160    1
    48    26    27   ar
    49   163   164    1
    50   163   160    1
    51   163   165    1
    52    31    33   am
    53   101   100    1
    54   160   159    1
    55   114   113    2
    56   106   107    1
    57   100   103    1
    58   100    99    1
    59   103   104    1
    60   103   105    1
    61    33    34    1
    62   112   111    1
    63   112   113    1
    64   111   108   am
    65   113   115   am
    66   159   154   am
    67    34    35    1
    68   107   108    1
    69   107   110    1
    70   108   109    2
    71   155   154    2
    72    37    35   am
    73    37    38    1
    74   115   116    1
    75   121   119    1
    76   154   153    1
    77   116   119    1
    78   116   117    1
    79    35    36    2
    80    39    38    1
    81    39    40    2
    82   157   156    1
    83    61    60    1
    84   119   120    1
    85   156   153    1
    86   156   158    1
    87   117   118    2
    88   117   122   am
    89   153   152    1
    90   122   123    1
    91    60    62    1
    92    60    59    2
    93   152   143   am
    94    98    97    2
    95   123   124    1
    96    59    58    1
    97   148   150   ar
    98   148   146   ar
    99   150   151   ar
   100   143   144    2
   101   143   142    1
   102   145   146    1
   103   145   142    1
   104    97    96    1
   105    41    42    1
   106   146   147   ar
   107    44    43    2
   108   142   141    1
   109   124   126   am
   110   124   125    2
   111    58    57    1
   112   126   127    1
   113    57    56    1
   114   151   149   ar
   115    96    95    1
   116   133   131   am
   117    43    42    1
   118    43    52   am
   119    42    45    1
   120   147   149   ar
   121   129   128    2
   122   127   130    1
   123   127   128    1
   124   131   130    1
   125   131   132    2
   126    45    46    1
   127    56    53    1
   128    52    53    1
   129   128   134   am
   130    53    54    1
   131    47    46   ar
   132    47    49   ar
   133    90    89    2
   134    46    48   ar
   135    49    51   ar
   136    48    50   ar
   137   134   135    1
   138   134   140    1
   139    54    63   am
   140    54    55    2
   141    51    50   ar
   142   137   136    2
   143    89    88    1
   144    63    64    1
   145   136   135    1
   146   135   138    1
   147    93    92   ar
   148    88    91    1
   149    88    87    1
   150   140   139    1
   151    91    92    1
   152    86    85    2
   153    92    94   ar
   154    64    65    1
   155    82    80    1
   156   138   139    1
   157    67    65   am
   158    67    68    1
   159    87    85   am
   160    85    84    1
   161    71    68    1
   162    65    66    2
   163    80    79    2
   164    80    81    1
   165    68    69    1
   166    79    78    1
   167    69    70    2
   168    84    83    1
   169    75    74    2
   170    78    77    1
   171    77    76    1
   172    74    73    1
   173    73    76    1
   174    73    72    1
