@<TRIPOS>MOLECULE
tmp/2bnjA00.pdb
 177 173 0 0 0
SMALL
GASTEIGER

@<TRIPOS>ATOM
      1  N         14.5680   10.3930   25.1910 N.3    24  ASN24      -0.1225
      2  CA        15.0410   10.7680   26.5190 C.3    24  ASN24       0.1785
      3  C         16.1680   11.7960   26.4700 C.2    24  ASN24       0.2597
      4  O         16.1330   12.7940   27.1830 O.2    24  ASN24      -0.2718
      5  CB        15.4480    9.5480   27.3600 C.3    24  ASN24       0.1169
      6  CG        16.7250    8.8700   26.8870 C.2    24  ASN24       0.2627
      7  OD1       16.9540    8.6570   25.6980 O.2    24  ASN24      -0.2716
      8  ND2       17.5630    8.4920   27.8480 N.am   24  ASN24      -0.0877
      9  N         17.1260   11.5800   25.5760 N.am   25  ARG25      -0.1979
     10  CA        18.2830   12.4850   25.4450 C.3    25  ARG25       0.1597
     11  C         17.9240   13.7470   24.6420 C.2    25  ARG25       0.2287
     12  O         18.4000   14.8260   24.9510 O.2    25  ARG25      -0.2864
     13  CB        19.4820   11.7480   24.8390 C.3    25  ARG25       0.0334
     14  CG        20.0640   10.7000   25.7920 C.3    25  ARG25       0.0492
     15  CD        20.6960   11.2980   27.0450 C.3    25  ARG25       0.2205
     16  NE        20.7880   10.3070   28.1310 N.pl3  25  ARG25      -0.0865
     17  CZ        20.5430   10.5660   29.4120 C.cat  25  ARG25       0.5346
     18  NH1       20.2350   11.7940   29.8410 N.pl3  25  ARG25       0.1354
     19  NH2       20.6340    9.5660   30.2800 N.pl3  25  ARG25       0.1354
     20  N         19.1360    4.5130   20.3340 N.3    45  GLU45      -0.1231
     21  CA        19.9100    3.7390   21.2880 C.3    45  GLU45       0.1699
     22  C         19.1120    2.5470   21.8170 C.2    45  GLU45       0.2592
     23  O         19.6870    1.5060   22.1690 O.2    45  GLU45      -0.2718
     24  CB        20.3790    4.6390   22.4450 C.3    45  GLU45       0.0402
     25  CG        21.4090    3.9850   23.3420 C.3    45  GLU45       0.1161
     26  CD        21.9680    4.8830   24.4330 C.2    45  GLU45       0.3649
     27  OE1       21.6150    6.0910   24.4590 O.co2  45  GLU45      -0.2457
     28  OE2       22.7780    4.3620   25.2460 O.co2  45  GLU45      -0.2457
     29  N         17.7880    2.7040   21.8420 N.am   46  ASN46      -0.1974
     30  CA        16.8980    1.6380   22.3690 C.3    46  ASN46       0.1688
     31  C         15.5060    1.5180   21.7730 C.2    46  ASN46       0.2292
     32  O         14.8930    0.4520   21.8620 O.2    46  ASN46      -0.2864
     33  CB        16.6950    1.8140   23.8670 C.3    46  ASN46       0.1181
     34  CG        17.9270    1.4820   24.6640 C.2    46  ASN46       0.2629
     35  OD1       18.3370    0.3260   24.7110 O.2    46  ASN46      -0.2716
     36  ND2       18.5170    2.4930   25.3120 N.am   46  ASN46      -0.0877
     37  N         14.4480   -1.4510   19.3990 N.3    49  LYS49      -0.1245
     38  CA        14.7050   -2.8250   19.8050 C.3    49  LYS49       0.1561
     39  C         13.3990   -3.5640   20.0400 C.2    49  LYS49       0.2260
     40  O         12.3210   -2.9540   20.1310 O.2    49  LYS49      -0.2867
     41  CB        15.6310   -2.8980   21.0240 C.3    49  LYS49       0.0271
     42  CG        17.0150   -2.3280   20.7240 C.3    49  LYS49       0.0035
     43  CD        17.8120   -2.1410   21.9900 C.3    49  LYS49       0.0206
     44  CE        19.1940   -1.6050   21.6720 C.3    49  LYS49       0.1093
     45  NZ        19.9740   -1.2910   22.9040 N.3    49  LYS49      -0.1314
     46  N         17.8320    0.0890   14.3130 N.3    82  HIS82      -0.1241
     47  CA        18.5880   -0.7940   15.1930 C.3    82  HIS82       0.1621
     48  C         17.6670   -1.3270   16.2690 C.2    82  HIS82       0.2264
     49  O         17.1000   -0.5340   16.9930 O.2    82  HIS82      -0.2867
     50  CB        19.7240    0.0260   15.8270 C.3    82  HIS82       0.0745
     51  CG        20.5610   -0.7410   16.8030 C.ar   82  HIS82       0.0817
     52  ND1       21.6430   -1.5030   16.4160 N.ar   82  HIS82      -0.2268
     53  CD2       20.5000   -0.8270   18.1530 C.ar   82  HIS82       0.1154
     54  CE1       22.1930   -2.0490   17.4910 C.ar   82  HIS82       0.1986
     55  NE2       21.5070   -1.6690   18.5550 N.ar   82  HIS82      -0.2212
     56  N         17.8210  -10.1650   17.3960 N.3    86  TRP86      -0.1241
     57  CA        18.8640  -10.1000   18.4140 C.3    86  TRP86       0.1605
     58  C         18.3690  -10.8620   19.6380 C.2    86  TRP86       0.2264
     59  O         17.1710  -10.8510   19.9280 O.2    86  TRP86      -0.2867
     60  CB        19.0950   -8.6480   18.7880 C.3    86  TRP86       0.0550
     61  CG        20.2470   -8.3670   19.7110 C.ar   86  TRP86       0.0003
     62  CD1       21.4200   -9.0460   19.8040 C.ar   86  TRP86       0.0946
     63  CD2       20.3510   -7.2460   20.5900 C.ar   86  TRP86       0.0152
     64  NE1       22.2480   -8.4230   20.7270 N.ar   86  TRP86      -0.2442
     65  CE2       21.6170   -7.3040   21.1990 C.ar   86  TRP86       0.0810
     66  CE3       19.4920   -6.1900   20.9160 C.ar   86  TRP86       0.0012
     67  CZ2       22.0300   -6.3610   22.1420 C.ar   86  TRP86       0.0191
     68  CZ3       19.9030   -5.2570   21.8380 C.ar   86  TRP86       0.0001
     69  CH2       21.1710   -5.3390   22.4360 C.ar   86  TRP86       0.0015
     70  N         17.5980   -7.9590   24.9370 N.3    89  GLN89      -0.1245
     71  CA        16.4480   -7.0800   24.9320 C.3    89  GLN89       0.1566
     72  C         15.2820   -7.6740   24.1260 C.2    89  GLN89       0.2260
     73  O         14.6020   -6.9830   23.3750 O.2    89  GLN89      -0.2867
     74  CB        16.8650   -5.6750   24.4690 C.3    89  GLN89       0.0367
     75  CG        17.7380   -5.0140   25.5210 C.3    89  GLN89       0.0905
     76  CD        18.1820   -3.6030   25.1700 C.2    89  GLN89       0.2608
     77  OE1       19.3140   -3.3940   24.7460 O.2    89  GLN89      -0.2717
     78  NE2       17.2940   -2.6300   25.3710 N.am   89  GLN89      -0.0878
     79  N         21.8390   -8.7120   14.7880 N.3   129  ASN129     -0.1225
     80  CA        22.8560   -8.1980   15.7130 C.3   129  ASN129      0.1785
     81  C         23.4340   -9.3630   16.5060 C.2   129  ASN129      0.2597
     82  O         22.7030  -10.2350   16.9680 O.2   129  ASN129     -0.2718
     83  CB        22.2130   -7.2010   16.6970 C.3   129  ASN129      0.1169
     84  CG        23.1940   -6.2160   17.3140 C.2   129  ASN129      0.2627
     85  OD1       24.1720   -5.8330   16.6840 O.2   129  ASN129     -0.2716
     86  ND2       22.8950   -5.7470   18.5400 N.am  129  ASN129     -0.0877
     87  N         24.7560   -9.3710   16.6520 N.am  130  GLU130     -0.1979
     88  CA        25.4690  -10.2830   17.5610 C.3   130  GLU130      0.1602
     89  C         25.2100  -11.7640   17.2630 C.2   130  GLU130      0.2287
     90  O         24.9760  -12.5680   18.1680 O.2   130  GLU130     -0.2864
     91  CB        25.1600   -9.9290   19.0170 C.3   130  GLU130      0.0415
     92  CG        25.7040   -8.5440   19.3050 C.3   130  GLU130      0.1163
     93  CD        25.5640   -8.0820   20.7050 C.2   130  GLU130      0.3649
     94  OE1       25.0000   -8.8070   21.5780 O.co2 130  GLU130     -0.2457
     95  OE2       26.0340   -6.9370   20.9010 O.co2 130  GLU130     -0.2457
     96  N         30.2100   -6.9260   17.5470 N.3   173  TYR173     -0.1241
     97  CA        31.3270   -6.3520   18.3000 C.3   173  TYR173      0.1605
     98  C         32.5040   -7.3290   18.2840 C.2   173  TYR173      0.2264
     99  O         32.3990   -8.4830   17.8540 O.2   173  TYR173     -0.2867
    100  CB        30.9610   -6.0460   19.7570 C.3   173  TYR173      0.0534
    101  CG        30.6270   -7.2640   20.5710 C.ar  173  TYR173     -0.0201
    102  CD1       29.3360   -7.7860   20.5340 C.ar  173  TYR173     -0.0009
    103  CD2       31.5740   -7.8940   21.3620 C.ar  173  TYR173     -0.0009
    104  CE1       28.9930   -8.9150   21.2690 C.ar  173  TYR173      0.0417
    105  CE2       31.2290   -9.0420   22.1090 C.ar  173  TYR173      0.0417
    106  CZ        29.9370   -9.5430   22.0460 C.ar  173  TYR173      0.1957
    107  OH        29.5720  -10.6910   22.7980 O.3   173  TYR173     -0.2866
    108  N         30.6930   -2.7170   15.6290 N.3   206  GLN206     -0.1245
    109  CA        30.2480   -1.8990   16.7580 C.3   206  GLN206      0.1566
    110  C         31.3830   -1.0190   17.2970 C.2   206  GLN206      0.2260
    111  O         31.1940    0.1830   17.5100 O.2   206  GLN206     -0.2867
    112  CB        29.6860   -2.7630   17.8760 C.3   206  GLN206      0.0367
    113  CG        28.3540   -3.4470   17.5140 C.3   206  GLN206      0.0905
    114  CD        27.7830   -4.2410   18.6590 C.2   206  GLN206      0.2608
    115  OE1       28.3010   -4.1680   19.7920 O.2   206  GLN206     -0.2717
    116  NE2       26.7390   -5.0580   18.3780 N.am  206  GLN206     -0.0878
    117  N         33.1400   -1.1760   20.2070 N.3   208  HIS208     -0.1241
    118  CA        33.1050   -0.8910   21.6390 C.3   208  HIS208      0.1621
    119  C         34.4760   -1.2740   22.1820 C.2   208  HIS208      0.2264
    120  O         34.7330   -2.4430   22.4500 O.2   208  HIS208     -0.2867
    121  CB        31.9890   -1.6750   22.3160 C.3   208  HIS208      0.0745
    122  CG        30.6300   -1.1530   22.0070 C.ar  208  HIS208      0.0817
    123  ND1       30.2280    0.1250   22.3400 N.ar  208  HIS208     -0.2268
    124  CD2       29.5760   -1.7340   21.3870 C.ar  208  HIS208      0.1154
    125  CE1       28.9720    0.2890   21.9670 C.ar  208  HIS208      0.1986
    126  NE2       28.5600   -0.8130   21.3670 N.ar  208  HIS208     -0.2212
    127  N         28.9400    1.7280   16.5280 N.3   236  GLU236     -0.1245
    128  CA        28.6720    2.0130   17.9580 C.3   236  GLU236      0.1567
    129  C         29.9390    2.3910   18.7220 C.2   236  GLU236      0.2260
    130  O         30.1620    1.9340   19.8270 O.2   236  GLU236     -0.2867
    131  CB        27.9740    0.8330   18.6490 C.3   236  GLU236      0.0388
    132  CG        26.8330    0.2040   17.8200 C.3   236  GLU236      0.1160
    133  CD        26.1290   -0.9520   18.5050 C.2   236  GLU236      0.3649
    134  OE1       26.4000   -1.2010   19.7040 O.co2 236  GLU236     -0.2457
    135  OE2       25.2890   -1.5900   17.8350 O.co2 236  GLU236     -0.2457
    136  N         28.5000    6.0230   20.1910 N.3   266  TRP266     -0.1241
    137  CA        27.3850    5.4540   20.9480 C.3   266  TRP266      0.1605
    138  C         26.9700    6.3430   22.1200 C.2   266  TRP266      0.2264
    139  O         27.0520    5.9550   23.2960 O.2   266  TRP266     -0.2867
    140  CB        27.6920    4.0250   21.4130 C.3   266  TRP266      0.0550
    141  CG        26.4590    3.2040   21.6250 C.ar  266  TRP266      0.0003
    142  CD1       26.0180    2.6720   22.7930 C.ar  266  TRP266      0.0946
    143  CD2       25.4760    2.8640   20.6370 C.ar  266  TRP266      0.0152
    144  NE1       24.8610    1.9820   22.6000 N.ar  266  TRP266     -0.2442
    145  CE2       24.4800    2.1010   21.2890 C.ar  266  TRP266      0.0810
    146  CE3       25.3410    3.1290   19.2710 C.ar  266  TRP266      0.0012
    147  CZ2       23.3660    1.5910   20.6250 C.ar  266  TRP266      0.0191
    148  CZ3       24.2320    2.6150   18.6060 C.ar  266  TRP266      0.0001
    149  CH2       23.2520    1.8590   19.2830 C.ar  266  TRP266      0.0015
    150  N         26.0840    9.9460   30.1520 N.3   272  ASP272     -0.1225
    151  CA        24.9420    9.2950   29.5220 C.3   272  ASP272      0.1805
    152  C         25.3180    8.0330   28.7530 C.2   272  ASP272      0.2598
    153  O         24.4530    7.3740   28.1540 O.2   272  ASP272     -0.2718
    154  CB        24.2600   10.2830   28.5900 C.3   272  ASP272      0.1424
    155  CG        23.8000   11.5220   29.3270 C.2   272  ASP272      0.3668
    156  OD1       23.3630   11.3600   30.4910 O.co2 272  ASP272     -0.2456
    157  OD2       23.9250   12.6470   28.8030 O.co2 272  ASP272     -0.2456
    158  N         26.6000    7.6730   28.7830 N.am  273  SER273     -0.1938
    159  CA        27.0550    6.4460   28.1370 C.3   273  SER273      0.2055
    160  C         26.5520    5.2300   28.8960 C.2   273  SER273      0.2643
    161  O         26.5050    5.2350   30.1360 O.2   273  SER273     -0.2714
    162  CB        28.5820    6.3950   28.0970 C.3   273  SER273      0.2130
    163  OG        29.0680    5.1450   27.6290 O.3   273  SER273     -0.2179
    164  N         26.2750    4.1470   28.1710 N.am  274  TRP274     -0.1973
    165  CA        26.0500    2.8620   28.8230 C.3   274  TRP274      0.1640
    166  C         27.2660    2.3910   29.6340 C.2   274  TRP274      0.2290
    167  O         27.1250    1.5190   30.5120 O.2   274  TRP274     -0.2864
    168  CB        25.6460    1.8050   27.7950 C.3   274  TRP274      0.0576
    169  CG        26.7220    1.2900   26.8860 C.ar  274  TRP274      0.0006
    170  CD1       27.6260    2.0110   26.1350 C.ar  274  TRP274      0.0946
    171  CD2       26.9610   -0.0930   26.5920 C.ar  274  TRP274      0.0152
    172  NE1       28.4220    1.1420   25.4190 N.ar  274  TRP274     -0.2442
    173  CE2       28.0320   -0.1480   25.6700 C.ar  274  TRP274      0.0810
    174  CE3       26.3900   -1.2850   27.0360 C.ar  274  TRP274      0.0012
    175  CZ2       28.5570   -1.3630   25.1960 C.ar  274  TRP274      0.0191
    176  CZ3       26.8820   -2.4950   26.5490 C.ar  274  TRP274      0.0001
    177  CH2       27.9550   -2.5240   25.6290 C.ar  274  TRP274      0.0015
@<TRIPOS>BOND
     1    46    47    1
     2    79    80    1
     3    47    50    1
     4    47    48    1
     5   108   109    1
     6    80    81    1
     7    80    83    1
     8    50    51    1
     9    48    49    2
    10    52    51   ar
    11    52    54   ar
    12    81    87   am
    13    81    82    2
    14   127   128    1
    15    87    88    1
    16    85    84    2
    17    83    84    1
    18   109   110    1
    19   109   112    1
    20    51    53   ar
    21    89    88    1
    22    89    90    2
    23   110   111    2
    24    84    86   am
    25    56    57    1
    26    54    55   ar
    27   113   112    1
    28   113   114    1
    29    96    97    1
    30    88    91    1
    31   132   133    1
    32   132   131    1
    33   135   133   ar
    34    99    98    2
    35   128   131    1
    36   128   129    1
    37    53    55   ar
    38    98    97    1
    39    97   100    1
    40   116   114   am
    41    57    60    1
    42    57    58    1
    43   133   134   ar
    44   148   146   ar
    45   148   149   ar
    46   114   115    2
    47   129   130    2
    48    60    61    1
    49    91    92    1
    50   146   143   ar
    51   149   147   ar
    52    92    93    1
    53    37    38    1
    54    58    59    2
    55    61    62   ar
    56    61    63   ar
    57   100   101    1
    58    62    64   ar
    59    38    39    1
    60    38    41    1
    61    39    40    2
    62   136   137    1
    63   117   118    1
    64    20    21    1
    65   102   101   ar
    66   102   104   ar
    67   101   103   ar
    68    63    66   ar
    69    63    65   ar
    70   147   145   ar
    71   143   145   ar
    72   143   141   ar
    73    93    95   ar
    74    93    94   ar
    75    42    41    1
    76    42    43    1
    77    64    65   ar
    78    66    68   ar
    79   137   140    1
    80   137   138    1
    81    65    67   ar
    82   104   106   ar
    83    21    22    1
    84    21    24    1
    85   145   144   ar
    86   103   105   ar
    87   126   124   ar
    88   126   125   ar
    89   124   122   ar
    90   140   141    1
    91   141   142   ar
    92   118   119    1
    93   118   121    1
    94    44    43    1
    95    44    45    1
    96    31    32    2
    97    31    30    1
    98    22    29   am
    99    22    23    2
   100    68    69   ar
   101    29    30    1
   102   125   123   ar
   103   122   121    1
   104   122   123   ar
   105   106   105   ar
   106   106   107    1
   107   138   139    2
   108    67    69   ar
   109   119   120    2
   110    30    33    1
   111    24    25    1
   112   144   142   ar
   113    25    26    1
   114    73    72    2
   115    33    34    1
   116    72    71    1
   117    26    27   ar
   118    26    28   ar
   119    74    71    1
   120    74    75    1
   121    11    12    2
   122    11    10    1
   123    34    35    2
   124    34    36   am
   125    77    76    2
   126    13    10    1
   127    13    14    1
   128    71    70    1
   129    76    78   am
   130    76    75    1
   131     1     2    1
   132   175   177   ar
   133   175   173   ar
   134   172   173   ar
   135   172   170   ar
   136    10     9    1
   137     9     3   am
   138   177   176   ar
   139   173   171   ar
   140     7     6    2
   141    14    15    1
   142   170   169   ar
   143     3     2    1
   144     3     4    2
   145     2     5    1
   146   176   174   ar
   147   171   169   ar
   148   171   174   ar
   149   169   168    1
   150     6     5    1
   151     6     8   am
   152    15    16    1
   153   163   162    1
   154   168   165    1
   155   162   159    1
   156    16    17    2
   157   159   158    1
   158   159   160    1
   159   153   152    2
   160   164   165    1
   161   164   160   am
   162   154   155    1
   163   154   151    1
   164   152   158   am
   165   152   151    1
   166   157   155   ar
   167   165   166    1
   168   160   161    2
   169   155   156   ar
   170    17    18    1
   171    17    19    1
   172   151   150    1
   173   166   167    2
