@<TRIPOS>MOLECULE
tmp/2bnnB00.pdb
 123 114 0 0 0
SMALL
GASTEIGER

@<TRIPOS>ATOM
      1  N        -30.9750   89.4030    9.8600 N.3    94  TYR94      -0.1241
      2  CA       -31.0100   87.9980    9.4720 C.3    94  TYR94       0.1605
      3  C        -31.3080   87.1210   10.6910 C.2    94  TYR94       0.2264
      4  O        -31.0370   87.5110   11.8290 O.2    94  TYR94      -0.2867
      5  CB       -29.6580   87.5590    8.8990 C.3    94  TYR94       0.0534
      6  CG       -29.0750   88.3540    7.7390 C.ar   94  TYR94      -0.0201
      7  CD1      -27.9500   89.1600    7.9270 C.ar   94  TYR94      -0.0009
      8  CD2      -29.6030   88.2570    6.4460 C.ar   94  TYR94      -0.0009
      9  CE1      -27.3760   89.8750    6.8670 C.ar   94  TYR94       0.0417
     10  CE2      -29.0350   88.9710    5.3740 C.ar   94  TYR94       0.0417
     11  CZ       -27.9190   89.7790    5.5950 C.ar   94  TYR94       0.1957
     12  OH       -27.3390   90.4930    4.5610 O.3    94  TYR94      -0.2866
     13  N        -30.3290   83.1460   11.7400 N.3    96  TYR96      -0.1241
     14  CA       -29.4480   82.0610   11.3130 C.3    96  TYR96       0.1605
     15  C        -29.8420   80.6850   11.8180 C.2    96  TYR96       0.2264
     16  O        -30.1250   80.4820   13.0010 O.2    96  TYR96      -0.2867
     17  CB       -28.0030   82.3660   11.7020 C.3    96  TYR96       0.0534
     18  CG       -27.4760   83.6150   11.0570 C.ar   96  TYR96      -0.0201
     19  CD1      -27.1600   84.7350   11.8210 C.ar   96  TYR96      -0.0009
     20  CD2      -27.3130   83.6870    9.6770 C.ar   96  TYR96      -0.0009
     21  CE1      -26.6810   85.8990   11.2210 C.ar   96  TYR96       0.0417
     22  CE2      -26.8330   84.8330    9.0700 C.ar   96  TYR96       0.0417
     23  CZ       -26.5190   85.9370    9.8430 C.ar   96  TYR96       0.1957
     24  OH       -26.0450   87.0720    9.2350 O.3    96  TYR96      -0.2866
     25  N        -19.1070   76.3110    6.8680 N.3   109  VAL109     -0.1245
     26  CA       -20.1240   76.9590    7.6870 C.3   109  VAL109      0.1561
     27  C        -21.3950   77.1070    6.8480 C.2   109  VAL109      0.2260
     28  O        -21.6050   78.1390    6.1990 O.2   109  VAL109     -0.2867
     29  CB       -19.6870   78.3490    8.2160 C.3   109  VAL109      0.0252
     30  CG1      -20.7050   78.8680    9.2230 C.3   109  VAL109      0.0019
     31  CG2      -18.3170   78.2830    8.8540 C.3   109  VAL109      0.0019
     32  N        -25.4420   77.5290    6.4690 N.3   111  LEU111     -0.1245
     33  CA       -26.5420   78.1490    7.1890 C.3   111  LEU111      0.1561
     34  C        -27.8340   78.1060    6.3840 C.2   111  LEU111      0.2260
     35  O        -27.8060   78.1270    5.1510 O.2   111  LEU111     -0.2867
     36  CB       -26.2070   79.6110    7.4460 C.3   111  LEU111      0.0270
     37  CG       -24.8420   79.9340    8.0450 C.3   111  LEU111      0.0019
     38  CD1      -24.5620   81.4170    7.9260 C.3   111  LEU111      0.0001
     39  CD2      -24.7730   79.4870    9.5020 C.3   111  LEU111      0.0001
     40  N        -30.7140   80.8470    6.1400 N.3   113  VAL113     -0.1245
     41  CA       -30.9170   82.2270    6.5750 C.3   113  VAL113      0.1561
     42  C        -32.3130   82.7020    6.2020 C.2   113  VAL113      0.2260
     43  O        -32.7500   82.5390    5.0600 O.2   113  VAL113     -0.2867
     44  CB       -29.8580   83.2030    5.9810 C.3   113  VAL113      0.0252
     45  CG1      -29.9140   84.5460    6.6820 C.3   113  VAL113      0.0019
     46  CG2      -28.4480   82.6320    6.0800 C.3   113  VAL113      0.0019
     47  N        -21.5160   93.3220    4.8000 N.3   126  ASN126     -0.1240
     48  CA       -20.3560   92.8790    5.5680 C.3   126  ASN126      0.1653
     49  C        -19.0950   93.1330    4.7650 C.2   126  ASN126      0.2266
     50  O        -19.1440   93.1900    3.5370 O.2   126  ASN126     -0.2867
     51  CB       -20.4620   91.4190    6.0320 C.3   126  ASN126      0.1155
     52  CG       -20.6520   90.4330    4.8900 C.2   126  ASN126      0.2627
     53  OD1      -20.0210   90.5320    3.8350 O.2   126  ASN126     -0.2716
     54  ND2      -21.5100   89.4480    5.1160 N.am  126  ASN126     -0.0877
     55  N        -15.9020   88.0450    3.8520 N.3   129  HIS129     -0.1241
     56  CA       -15.3520   87.1220    4.8380 C.3   129  HIS129      0.1621
     57  C        -14.3370   86.1110    4.2860 C.2   129  HIS129      0.2264
     58  O        -14.0150   86.1280    3.0960 O.2   129  HIS129     -0.2867
     59  CB       -16.4580   86.4730    5.6850 C.3   129  HIS129      0.0745
     60  CG       -17.6580   86.0440    4.9020 C.ar  129  HIS129      0.0817
     61  ND1      -17.6580   84.9280    4.0950 N.ar  129  HIS129     -0.2268
     62  CD2      -18.9010   86.5760    4.8120 C.ar  129  HIS129      0.1154
     63  CE1      -18.8460   84.7960    3.5330 C.ar  129  HIS129      0.1986
     64  NE2      -19.6190   85.7810    3.9560 N.ar  129  HIS129     -0.2212
     65  N        -18.1800   81.3190   -0.9120 N.3   133  GLU133     -0.1245
     66  CA       -19.5530   81.1070   -0.4770 C.3   133  GLU133      0.1567
     67  C        -20.5620   80.7730   -1.5620 C.2   133  GLU133      0.2260
     68  O        -20.8170   81.5880   -2.4480 O.2   133  GLU133     -0.2867
     69  CB       -20.0410   82.3090    0.3020 C.3   133  GLU133      0.0388
     70  CG       -21.3380   82.0360    1.0240 C.3   133  GLU133      0.1160
     71  CD       -21.5640   83.0040    2.1520 C.2   133  GLU133      0.3649
     72  OE1      -21.6320   84.2230    1.8860 O.co2 133  GLU133     -0.2457
     73  OE2      -21.6560   82.5350    3.3030 O.co2 133  GLU133     -0.2457
     74  N        -24.5000   80.1500   -2.4840 N.3   135  LEU135     -0.1245
     75  CA       -25.8400   80.5240   -2.0070 C.3   135  LEU135      0.1561
     76  C        -26.9290   80.0750   -2.9740 C.2   135  LEU135      0.2260
     77  O        -26.7000   79.9880   -4.1880 O.2   135  LEU135     -0.2867
     78  CB       -25.9540   82.0240   -1.7380 C.3   135  LEU135      0.0270
     79  CG       -25.2290   82.5950   -0.5130 C.3   135  LEU135      0.0019
     80  CD1      -23.8660   83.1450   -0.8850 C.3   135  LEU135      0.0001
     81  CD2      -26.0530   83.6850    0.1350 C.3   135  LEU135      0.0001
     82  N        -20.5630   91.9670    0.6550 N.3   171  HIS171     -0.1241
     83  CA       -21.8910   91.6650    0.1050 C.3   171  HIS171      0.1621
     84  C        -23.0040   91.8290    1.1400 C.2   171  HIS171      0.2264
     85  O        -22.7470   91.8660    2.3470 O.2   171  HIS171     -0.2867
     86  CB       -21.9340   90.2590   -0.5040 C.3   171  HIS171      0.0745
     87  CG       -21.5200   89.1790    0.4450 C.ar  171  HIS171      0.0817
     88  ND1      -20.2130   89.0050    0.8520 N.ar  171  HIS171     -0.2268
     89  CD2      -22.2390   88.2150    1.0660 C.ar  171  HIS171      0.1154
     90  CE1      -20.1470   87.9850    1.6860 C.ar  171  HIS171      0.1986
     91  NE2      -21.3630   87.4850    1.8290 N.ar  171  HIS171     -0.2212
     92  N        -27.5690   91.0730    1.6330 N.3   173  PHE173     -0.1241
     93  CA       -28.8240   90.5200    1.1300 C.3   173  PHE173      0.1605
     94  C        -30.0490   91.1240    1.7920 C.2   173  PHE173      0.2264
     95  O        -30.0160   91.5490    2.9570 O.2   173  PHE173     -0.2867
     96  CB       -28.8610   89.0070    1.2980 C.3   173  PHE173      0.0534
     97  CG       -27.7640   88.3090    0.5860 C.ar  173  PHE173     -0.0203
     98  CD1      -26.6320   87.8930    1.2770 C.ar  173  PHE173     -0.0042
     99  CD2      -27.8480   88.0790   -0.7880 C.ar  173  PHE173     -0.0042
    100  CE1      -25.5970   87.2490    0.6100 C.ar  173  PHE173     -0.0003
    101  CE2      -26.8200   87.4280   -1.4670 C.ar  173  PHE173     -0.0003
    102  CZ       -25.6920   87.0160   -0.7710 C.ar  173  PHE173     -0.0000
    103  N        -32.5350   82.0340    2.2800 N.3   184  LEU184     -0.1245
    104  CA       -31.2970   81.6070    1.6220 C.3   184  LEU184      0.1561
    105  C        -30.7480   80.3600    2.2900 C.2   184  LEU184      0.2260
    106  O        -30.8180   80.2220    3.5140 O.2   184  LEU184     -0.2867
    107  CB       -30.2150   82.6830    1.7470 C.3   184  LEU184      0.0270
    108  CG       -30.3390   84.0240    1.0380 C.3   184  LEU184      0.0019
    109  CD1      -29.5490   85.0940    1.7990 C.3   184  LEU184      0.0001
    110  CD2      -29.8840   83.9170   -0.4110 C.3   184  LEU184      0.0001
    111  N        -26.9310   79.1380    2.6520 N.3   186  ALA186     -0.1245
    112  CA       -25.5830   79.6100    2.3980 C.3   186  ALA186      0.1562
    113  C        -24.5950   78.5300    2.7980 C.2   186  ALA186      0.2260
    114  O        -24.7500   77.9080    3.8400 O.2   186  ALA186     -0.2867
    115  CB       -25.3190   80.8910    3.1750 C.3   186  ALA186      0.0290
    116  N        -20.6420   78.4800    3.3140 N.3   188  ASN188     -0.1240
    117  CA       -19.3080   79.0500    3.3820 C.3   188  ASN188      0.1653
    118  C        -18.3340   77.8780    3.4220 C.2   188  ASN188      0.2266
    119  O        -18.5890   76.8800    4.0990 O.2   188  ASN188     -0.2867
    120  CB       -19.1820   79.9380    4.6240 C.3   188  ASN188      0.1155
    121  CG       -18.0240   80.9260    4.5460 C.2   188  ASN188      0.2627
    122  OD1      -17.4210   81.2660    5.5660 O.2   188  ASN188     -0.2716
    123  ND2      -17.7190   81.4060    3.3450 N.am  188  ASN188     -0.0877
@<TRIPOS>BOND
     1    77    76    2
     2    76    75    1
     3    74    75    1
     4    68    67    2
     5    75    78    1
     6    78    79    1
     7    67    66    1
     8   101    99   ar
     9   101   102   ar
    10    65    66    1
    11    80    79    1
    12    99    97   ar
    13   102   100   ar
    14    79    81    1
    15    86    83    1
    16    86    87    1
    17    66    69    1
    18   110   108    1
    19    83    82    1
    20    83    84    1
    21    69    70    1
    22    87    88   ar
    23    87    89   ar
    24    97    98   ar
    25    97    96    1
    26   100    98   ar
    27    88    90   ar
    28    70    71    1
    29   108   107    1
    30   108   109    1
    31    89    91   ar
    32    93    96    1
    33    93    92    1
    34    93    94    1
    35    84    85    2
    36   104   107    1
    37   104   103    1
    38   104   105    1
    39    90    91   ar
    40    94    95    2
    41    72    71   ar
    42    71    73   ar
    43   105   106    2
    44   112   111    1
    45   112   113    1
    46   112   115    1
    47   113   114    2
    48    58    57    2
    49   116   117    1
    50   123   121   am
    51   117   118    1
    52   117   120    1
    53   118   119    2
    54    63    64   ar
    55    63    61   ar
    56    50    49    2
    57    53    52    2
    58    55    56    1
    59    64    62   ar
    60    61    60   ar
    61    57    56    1
    62   121   120    1
    63   121   122    2
    64    12    11    1
    65    49    48    1
    66    47    48    1
    67    62    60   ar
    68    56    59    1
    69    52    54   am
    70    52    51    1
    71    60    59    1
    72    43    42    2
    73    35    34    2
    74    10    11   ar
    75    10     8   ar
    76    48    51    1
    77    11     9   ar
    78    44    46    1
    79    44    41    1
    80    44    45    1
    81    40    41    1
    82    28    27    2
    83    42    41    1
    84    34    33    1
    85     8     6   ar
    86    32    33    1
    87    27    26    1
    88     9     7   ar
    89    25    26    1
    90    33    36    1
    91    36    37    1
    92    26    29    1
    93     6     7   ar
    94     6     5    1
    95    38    37    1
    96    37    39    1
    97    29    31    1
    98    29    30    1
    99     5     2    1
   100    22    20   ar
   101    22    23   ar
   102    24    23    1
   103     2     1    1
   104     2     3    1
   105    20    18   ar
   106    23    21   ar
   107     3     4    2
   108    18    17    1
   109    18    19   ar
   110    21    19   ar
   111    14    17    1
   112    14    13    1
   113    14    15    1
   114    15    16    2
