@<TRIPOS>MOLECULE
tmp/2bnsA03.pdb
 126 120 0 0 0
SMALL
GASTEIGER

@<TRIPOS>ATOM
      1  N         95.9400   28.3640   86.8180 N.3   186  ALA186     -0.1245
      2  CA        95.6190   28.2160   85.3970 C.3   186  ALA186      0.1562
      3  C         94.7600   29.3770   84.8110 C.2   186  ALA186      0.2260
      4  O         95.0430   29.8880   83.7330 O.2   186  ALA186     -0.2867
      5  CB        94.9410   26.8690   85.1680 C.3   186  ALA186      0.0290
      6  N         96.8650   32.7100   84.5010 N.3   189  LEU189     -0.1231
      7  CA        97.6910   32.5150   83.3180 C.3   189  LEU189      0.1693
      8  C         96.9320   32.5770   81.9810 C.2   189  LEU189      0.2592
      9  O         97.4310   33.1890   81.0570 O.2   189  LEU189     -0.2718
     10  CB        98.4210   31.1700   83.4280 C.3   189  LEU189      0.0284
     11  CG        99.8320   31.1330   84.0330 C.3   189  LEU189      0.0019
     12  CD1      100.1800   32.4030   84.7490 C.3   189  LEU189      0.0001
     13  CD2      100.0170   29.9160   84.9380 C.3   189  LEU189      0.0001
     14  N         95.7630   31.9280   81.8600 N.am  190  HIS190     -0.1976
     15  CA        95.0180   31.8980   80.5790 C.3   190  HIS190      0.1656
     16  C         94.4820   33.2920   80.2520 C.2   190  HIS190      0.2291
     17  O         94.5910   33.7440   79.1160 O.2   190  HIS190     -0.2864
     18  CB        93.8810   30.8360   80.5580 C.3   190  HIS190      0.0771
     19  CG        92.9740   30.9270   79.3520 C.ar  190  HIS190      0.0820
     20  ND1       93.4460   30.8680   78.0540 N.ar  190  HIS190     -0.2267
     21  CD2       91.6230   31.0580   79.2500 C.ar  190  HIS190      0.1154
     22  CE1       92.4370   30.9850   77.2080 C.ar  190  HIS190      0.1986
     23  NE2       91.3140   31.0980   77.9050 N.ar  190  HIS190     -0.2212
     24  N         97.5500   35.4730   79.3390 N.3   193  LEU193     -0.1245
     25  CA        98.1690   35.1210   78.0780 C.3   193  LEU193      0.1561
     26  C         97.3650   35.7080   76.9300 C.2   193  LEU193      0.2260
     27  O         97.9140   36.4090   76.0840 O.2   193  LEU193     -0.2867
     28  CB        98.2790   33.6000   77.9520 C.3   193  LEU193      0.0270
     29  CG        99.1130   33.1390   76.7610 C.3   193  LEU193      0.0019
     30  CD1      100.5940   33.5400   76.9400 C.3   193  LEU193      0.0001
     31  CD2       98.9460   31.6460   76.5500 C.3   193  LEU193      0.0001
     32  N         98.0470   33.5290   68.0600 N.3   209  PRO209     -0.2116
     33  CA        98.1830   32.3810   68.9730 C.3   209  PRO209      0.1372
     34  C         99.5840   31.7280   68.9600 C.2   209  PRO209      0.2244
     35  O         99.9840   31.1530   69.9690 O.2   209  PRO209     -0.2868
     36  CB        97.0840   31.4150   68.4970 C.3   209  PRO209      0.0268
     37  CG        96.6780   31.9120   67.1550 C.3   209  PRO209      0.0207
     38  CD        96.9010   33.3690   67.1430 C.3   209  PRO209      0.0892
     39  N        101.3870   33.2070   71.7320 N.3   212  GLU212     -0.1231
     40  CA       100.9190   32.6080   72.9720 C.3   212  GLU212      0.1699
     41  C        101.6850   31.3150   73.2610 C.2   212  GLU212      0.2592
     42  O        102.1860   31.1130   74.3660 O.2   212  GLU212     -0.2718
     43  CB        99.4150   32.3150   72.9010 C.3   212  GLU212      0.0402
     44  CG        98.5400   33.5590   72.8600 C.3   212  GLU212      0.1161
     45  CD        97.0590   33.2210   72.8160 C.2   212  GLU212      0.3649
     46  OE1       96.5170   33.0890   71.6970 O.co2 212  GLU212     -0.2457
     47  OE2       96.4490   33.0750   73.9010 O.co2 212  GLU212     -0.2457
     48  N        101.7600   30.4570   72.2490 N.am  213  ASP213     -0.1974
     49  CA       102.4240   29.1690   72.3410 C.3   213  ASP213      0.1709
     50  C        103.8890   29.3810   72.6240 C.2   213  ASP213      0.2293
     51  O        104.4700   28.6820   73.4620 O.2   213  ASP213     -0.2864
     52  CB       102.2900   28.4050   71.0240 C.3   213  ASP213      0.1436
     53  CG       100.9450   27.7220   70.8720 C.2   213  ASP213      0.3671
     54  OD1      100.5560   27.4450   69.7160 O.co2 213  ASP213     -0.2456
     55  OD2      100.2240   27.4080   71.8440 O.co2 213  ASP213     -0.2456
     56  N        104.6480   30.3280   76.1890 N.3   216  PHE216     -0.1241
     57  CA       104.6520   29.2810   77.2140 C.3   216  PHE216      0.1605
     58  C        105.8000   28.2930   77.0940 C.2   216  PHE216      0.2264
     59  O        106.2660   27.7220   78.0780 O.2   216  PHE216     -0.2867
     60  CB       103.3060   28.5920   77.3770 C.3   216  PHE216      0.0534
     61  CG       102.6240   29.0210   78.6100 C.ar  216  PHE216     -0.0203
     62  CD1      101.7670   30.1070   78.5990 C.ar  216  PHE216     -0.0042
     63  CD2      102.9260   28.4260   79.8090 C.ar  216  PHE216     -0.0042
     64  CE1      101.1800   30.5410   79.7590 C.ar  216  PHE216     -0.0003
     65  CE2      102.3410   28.8750   80.9730 C.ar  216  PHE216     -0.0003
     66  CZ       101.4770   29.9370   80.9400 C.ar  216  PHE216     -0.0000
     67  N        108.3200   27.8180   80.0090 N.3   220  VAL220     -0.1245
     68  CA       108.1500   26.5530   80.7360 C.3   220  VAL220      0.1561
     69  C        108.4070   25.2680   79.9320 C.2   220  VAL220      0.2260
     70  O        108.3890   24.1690   80.4870 O.2   220  VAL220     -0.2867
     71  CB       106.7410   26.5210   81.4040 C.3   220  VAL220      0.0252
     72  CG1      105.7210   25.7360   80.5760 C.3   220  VAL220      0.0019
     73  CG2      106.8300   25.9640   82.7800 C.3   220  VAL220      0.0019
     74  N        106.6780   24.0170   77.4450 N.3   222  TYR222     -0.1227
     75  CA       105.4690   23.3560   76.9820 C.3   222  TYR222      0.1736
     76  C        104.2790   24.3140   76.8680 C.2   222  TYR222      0.2596
     77  O        104.0070   25.0660   77.7840 O.2   222  TYR222     -0.2718
     78  CB       105.0950   22.2440   77.9470 C.3   222  TYR222      0.0548
     79  CG       103.8520   21.5280   77.5130 C.ar  222  TYR222     -0.0200
     80  CD1      103.8710   20.7520   76.3540 C.ar  222  TYR222     -0.0009
     81  CD2      102.6600   21.6320   78.2360 C.ar  222  TYR222     -0.0009
     82  CE1      102.7420   20.0900   75.9190 C.ar  222  TYR222      0.0417
     83  CE2      101.5060   20.9650   77.8100 C.ar  222  TYR222      0.0417
     84  CZ       101.5640   20.1990   76.6400 C.ar  222  TYR222      0.1957
     85  OH       100.4980   19.5370   76.1610 O.3   222  TYR222     -0.2866
     86  N        103.5940   24.2750   75.7280 N.am  223  SER223     -0.1938
     87  CA       102.3230   24.9410   75.5510 C.3   223  SER223      0.2055
     88  C        101.2630   23.8890   75.3610 C.2   223  SER223      0.2643
     89  O        101.3610   23.0570   74.4630 O.2   223  SER223     -0.2714
     90  CB       102.3330   25.8360   74.3160 C.3   223  SER223      0.2130
     91  OG       101.0420   26.3770   74.0760 O.3   223  SER223     -0.2179
     92  N        100.2370   23.9310   76.1920 N.am  224  ILE224     -0.1963
     93  CA        99.1340   22.9820   76.0780 C.3   224  ILE224      0.1727
     94  C         98.2130   23.2830   74.8840 C.2   224  ILE224      0.2617
     95  O         97.4670   22.4090   74.4540 O.2   224  ILE224     -0.2715
     96  CB        98.3630   22.9400   77.3970 C.3   224  ILE224      0.0290
     97  CG1       97.5660   21.6440   77.5180 C.3   224  ILE224      0.0022
     98  CG2       97.4890   24.1800   77.5340 C.3   224  ILE224      0.0023
     99  CD1       97.0990   21.3470   78.9200 C.3   224  ILE224      0.0001
    100  N         98.2570   24.5080   74.3590 N.am  225  GLY225     -0.1940
    101  CA        97.4480   24.9030   73.2070 C.3   225  GLY225      0.2014
    102  C         96.0640   25.4460   73.5600 C.2   225  GLY225      0.2639
    103  O         95.5860   25.2680   74.6680 O.2   225  GLY225     -0.2714
    104  N         95.4150   26.0910   72.5940 N.am  226  THR226     -0.1950
    105  CA        94.1650   26.8360   72.8200 C.3   226  THR226      0.1897
    106  C         93.0220   25.9090   73.2010 C.2   226  THR226      0.2313
    107  O         92.3150   26.1470   74.1800 O.2   226  THR226     -0.2863
    108  CB        93.7690   27.6920   71.5720 C.3   226  THR226      0.1794
    109  OG1       93.6650   26.8700   70.3980 O.3   226  THR226     -0.2208
    110  CG2       94.8710   28.7060   71.2080 C.3   226  THR226      0.0378
    111  N         93.9890   24.2800   76.8910 N.3   229  ILE229     -0.1245
    112  CA        93.8690   25.0750   78.1210 C.3   229  ILE229      0.1561
    113  C         92.4200   25.1690   78.5930 C.2   229  ILE229      0.2260
    114  O         92.1630   25.1150   79.7850 O.2   229  ILE229     -0.2867
    115  CB        94.4720   26.4830   77.9590 C.3   229  ILE229      0.0252
    116  CG1       94.4150   27.2540   79.2840 C.3   229  ILE229      0.0019
    117  CG2       93.7300   27.2990   76.8780 C.3   229  ILE229      0.0019
    118  CD1       95.0530   26.5430   80.4710 C.3   229  ILE229      0.0001
    119  N         91.6870   21.9070   79.9890 N.3   232  LEU232     -0.1245
    120  CA        92.3530   21.8370   81.2780 C.3   232  LEU232      0.1561
    121  C         91.6080   22.5730   82.3960 C.2   232  LEU232      0.2260
    122  O         91.4510   22.0380   83.4830 O.2   232  LEU232     -0.2867
    123  CB        93.7750   22.4010   81.1610 C.3   232  LEU232      0.0270
    124  CG        94.5550   22.4970   82.4680 C.3   232  LEU232      0.0019
    125  CD1       94.6680   21.1110   83.1490 C.3   232  LEU232      0.0001
    126  CD2       95.9140   23.1010   82.2180 C.3   232  LEU232      0.0001
@<TRIPOS>BOND
     1    38    37    1
     2    38    32    1
     3    37    36    1
     4    32    33    1
     5    36    33    1
     6    34    33    1
     7    34    35    2
     8    54    53   ar
     9   109   108    1
    10    53    52    1
    11    53    55   ar
    12    52    49    1
    13   110   108    1
    14   108   105    1
    15    46    45   ar
    16    39    40    1
    17    48    49    1
    18    48    41   am
    19    49    50    1
    20   104   105    1
    21   104   102   am
    22    50    51    2
    23    45    44    1
    24    45    47   ar
    25   105   106    1
    26    44    43    1
    27    43    40    1
    28    40    41    1
    29   106   107    2
    30   101   102    1
    31   101   100    1
    32    41    42    2
    33   102   103    2
    34    91    90    1
    35    90    87    1
    36   100    94   am
    37    95    94    2
    38    89    88    2
    39    94    93    1
    40    88    87    1
    41    88    92   am
    42    87    86    1
    43    86    76   am
    44    82    80   ar
    45    82    84   ar
    46    93    92    1
    47    93    96    1
    48    27    26    2
    49    85    84    1
    50    56    57    1
    51    80    79   ar
    52    31    29    1
    53    84    83   ar
    54    29    30    1
    55    29    28    1
    56    76    75    1
    57    76    77    2
    58   117   115    1
    59   111   112    1
    60    26    25    1
    61    75    74    1
    62    75    78    1
    63    58    57    1
    64    58    59    2
    65    22    23   ar
    66    22    20   ar
    67    57    60    1
    68    60    61    1
    69    96    97    1
    70    96    98    1
    71    79    78    1
    72    79    81   ar
    73    97    99    1
    74    83    81   ar
    75    23    21   ar
    76    28    25    1
    77   115   112    1
    78   115   116    1
    79    20    19   ar
    80    25    24    1
    81   112   113    1
    82   113   114    2
    83    62    61   ar
    84    62    64   ar
    85    61    63   ar
    86    17    16    2
    87    21    19   ar
    88   116   118    1
    89    19    18    1
    90    64    66   ar
    91    63    65   ar
    92    69    70    2
    93    69    68    1
    94   119   120    1
    95    67    68    1
    96    16    15    1
    97    18    15    1
    98    72    71    1
    99    15    14    1
   100    68    71    1
   101    66    65   ar
   102     9     8    2
   103   123   120    1
   104   123   124    1
   105   120   121    1
   106    71    73    1
   107    14     8   am
   108     8     7    1
   109   126   124    1
   110   121   122    2
   111   124   125    1
   112     7    10    1
   113     7     6    1
   114    10    11    1
   115     4     3    2
   116    11    12    1
   117    11    13    1
   118     3     2    1
   119     5     2    1
   120     2     1    1
