@<TRIPOS>MOLECULE
tmp/2bo4F00.pdb
 106 101 0 0 0
SMALL
GASTEIGER

@<TRIPOS>ATOM
      1  N         55.1380  -14.8930   39.0050 N.3   130  ARG130     -0.1245
      2  CA        54.2050  -16.0240   39.0470 C.3   130  ARG130      0.1563
      3  C         54.6810  -17.0390   40.0770 C.2   130  ARG130      0.2260
      4  O         55.8820  -17.1890   40.2980 O.2   130  ARG130     -0.2867
      5  CB        54.1260  -16.7420   37.6960 C.3   130  ARG130      0.0307
      6  CG        53.8630  -15.8540   36.4780 C.3   130  ARG130      0.0489
      7  CD        52.5680  -15.0710   36.5430 C.3   130  ARG130      0.2205
      8  NE        51.3820  -15.9120   36.6590 N.pl3 130  ARG130     -0.0865
      9  CZ        50.8600  -16.6360   35.6820 C.cat 130  ARG130      0.5346
     10  NH1       51.3980  -16.6620   34.4590 N.pl3 130  ARG130      0.1354
     11  NH2       49.7690  -17.3370   35.9360 N.pl3 130  ARG130      0.1354
     12  N         52.7480  -22.1360   38.7950 N.3   134  ASP134     -0.1225
     13  CA        52.0150  -21.5320   37.6930 C.3   134  ASP134      0.1805
     14  C         52.9500  -21.4400   36.4930 C.2   134  ASP134      0.2598
     15  O         54.1280  -21.7890   36.5780 O.2   134  ASP134     -0.2718
     16  CB        51.5540  -20.1120   38.0470 C.3   134  ASP134      0.1424
     17  CG        50.3390  -20.0870   38.9460 C.2   134  ASP134      0.3668
     18  OD1       49.5080  -21.0180   38.9340 O.co2 134  ASP134     -0.2456
     19  OD2       50.1250  -19.1330   39.7000 O.co2 134  ASP134     -0.2456
     20  N         52.4000  -20.9710   35.3770 N.am  135  ALA135     -0.1966
     21  CA        53.1430  -20.6960   34.1570 C.3   135  ALA135      0.1728
     22  C         53.8140  -21.9380   33.5650 C.2   135  ALA135      0.2616
     23  O         54.8650  -21.8370   32.9400 O.2   135  ALA135     -0.2715
     24  CB        54.2020  -19.5810   34.4280 C.3   135  ALA135      0.0334
     25  N         53.2170  -23.1100   33.7580 N.am  136  MET136     -0.1963
     26  CA        53.8230  -24.3480   33.2720 C.3   136  MET136      0.1736
     27  C         53.7170  -24.5590   31.7640 C.2   136  MET136      0.2616
     28  O         54.5360  -25.2720   31.1850 O.2   136  MET136     -0.2715
     29  CB        53.2890  -25.5460   34.0430 C.3   136  MET136      0.0427
     30  CG        53.7480  -25.5250   35.4910 C.3   136  MET136      0.0599
     31  SD        55.5110  -25.9480   35.6710 S.3   136  MET136     -0.1393
     32  CE        56.3570  -24.3670   35.8230 C.3   136  MET136      0.0692
     33  N         52.7410  -23.9390   31.1180 N.am  137  ILE137     -0.1963
     34  CA        52.7320  -23.9080   29.6530 C.3   137  ILE137      0.1727
     35  C         53.7990  -22.9300   29.1670 C.2   137  ILE137      0.2616
     36  O         54.5980  -23.2580   28.3020 O.2   137  ILE137     -0.2715
     37  CB        51.3480  -23.5460   29.0890 C.3   137  ILE137      0.0290
     38  CG1       50.3180  -24.5700   29.5640 C.3   137  ILE137      0.0022
     39  CG2       51.4090  -23.5140   27.5710 C.3   137  ILE137      0.0023
     40  CD1       48.9040  -24.2150   29.2350 C.3   137  ILE137      0.0001
     41  N         53.8200  -21.7400   29.7540 N.am  138  THR138     -0.1951
     42  CA        54.8130  -20.7240   29.4210 C.3   138  THR138      0.1897
     43  C         56.2210  -21.3180   29.4350 C.2   138  THR138      0.2313
     44  O         56.9510  -21.1830   28.4660 O.2   138  THR138     -0.2863
     45  CB        54.7130  -19.5390   30.3920 C.3   138  THR138      0.1794
     46  OG1       53.5290  -18.7950   30.1110 O.3   138  THR138     -0.2208
     47  CG2       55.8660  -18.5180   30.1760 C.3   138  THR138      0.0378
     48  N         53.0160  -15.6850   26.4770 N.3   162  LEU162     -0.1245
     49  CA        51.5790  -15.9420   26.4240 C.3   162  LEU162      0.1561
     50  C         50.7630  -14.8340   27.0730 C.2   162  LEU162      0.2260
     51  O         49.5540  -14.9430   27.1540 O.2   162  LEU162     -0.2867
     52  CB        51.2410  -17.2790   27.1060 C.3   162  LEU162      0.0270
     53  CG        52.0760  -18.4670   26.6370 C.3   162  LEU162      0.0019
     54  CD1       51.6520  -19.7380   27.3480 C.3   162  LEU162      0.0001
     55  CD2       51.9590  -18.6340   25.1210 C.3   162  LEU162      0.0001
     56  N         47.6390  -10.3480   37.9070 N.3   214  LYS214     -0.1231
     57  CA        47.1070  -11.5100   37.1980 C.3   214  LYS214      0.1693
     58  C         46.1080  -12.2500   38.0830 C.2   214  LYS214      0.2592
     59  O         46.4020  -12.5620   39.2370 O.2   214  LYS214     -0.2718
     60  CB        48.2130  -12.4930   36.7870 C.3   214  LYS214      0.0285
     61  CG        49.1480  -11.9950   35.7040 C.3   214  LYS214      0.0035
     62  CD        49.6080  -13.1240   34.7460 C.3   214  LYS214      0.0206
     63  CE        48.9770  -12.9930   33.3570 C.3   214  LYS214      0.1093
     64  NZ        48.5460  -14.3090   32.8130 N.3   214  LYS214     -0.1314
     65  N         44.9260  -12.5190   37.5420 N.am  215  ALA215     -0.1966
     66  CA        43.9790  -13.3970   38.2100 C.3   215  ALA215      0.1728
     67  C         44.5740  -14.8040   38.2960 C.2   215  ALA215      0.2616
     68  O         45.3450  -15.2220   37.4370 O.2   215  ALA215     -0.2715
     69  CB        42.6330  -13.4290   37.4720 C.3   215  ALA215      0.0334
     70  N         44.2200  -15.5080   39.3600 N.am  216  HIS216     -0.1959
     71  CA        44.6010  -16.8910   39.5550 C.3   216  HIS216      0.1787
     72  C         43.4190  -17.7300   39.1340 C.2   216  HIS216      0.2620
     73  O         42.2900  -17.4630   39.5470 O.2   216  HIS216     -0.2715
     74  CB        44.8790  -17.1580   41.0320 C.3   216  HIS216      0.0785
     75  CG        45.9170  -16.2620   41.6230 C.ar  216  HIS216      0.0821
     76  ND1       47.1450  -16.0560   41.0330 N.ar  216  HIS216     -0.2267
     77  CD2       45.9080  -15.5120   42.7510 C.ar  216  HIS216      0.1154
     78  CE1       47.8530  -15.2240   41.7780 C.ar  216  HIS216      0.1986
     79  NE2       47.1230  -14.8750   42.8220 N.ar  216  HIS216     -0.2212
     80  N         43.6720  -18.7550   38.3310 N.am  217  ARG217     -0.1977
     81  CA        42.6210  -19.6860   37.9650 C.3   217  ARG217      0.1597
     82  C         42.1050  -20.3810   39.2200 C.2   217  ARG217      0.2287
     83  O         42.7800  -20.4170   40.2510 O.2   217  ARG217     -0.2864
     84  CB        43.1180  -20.6990   36.9300 C.3   217  ARG217      0.0334
     85  CG        44.2180  -21.6680   37.3940 C.3   217  ARG217      0.0492
     86  CD        44.6180  -22.6440   36.2880 C.3   217  ARG217      0.2205
     87  NE        45.6220  -23.6370   36.6750 N.pl3 217  ARG217     -0.0865
     88  CZ        45.3720  -24.9130   37.0130 C.cat 217  ARG217      0.5346
     89  NH1       44.1410  -25.3900   37.0680 N.pl3 217  ARG217      0.1354
     90  NH2       46.3800  -25.7280   37.2980 N.pl3 217  ARG217      0.1354
     91  N         43.8900  -26.8090   32.2020 N.3   225  LEU225     -0.1245
     92  CA        44.6790  -26.1090   31.1930 C.3   225  LEU225      0.1561
     93  C         44.8950  -26.8950   29.9040 C.2   225  LEU225      0.2260
     94  O         45.6810  -26.4810   29.0550 O.2   225  LEU225     -0.2867
     95  CB        46.0470  -25.7590   31.7730 C.3   225  LEU225      0.0270
     96  CG        45.9950  -24.7820   32.9390 C.3   225  LEU225      0.0019
     97  CD1       47.3780  -24.6500   33.5560 C.3   225  LEU225      0.0001
     98  CD2       45.4720  -23.4270   32.4690 C.3   225  LEU225      0.0001
     99  N         44.2980  -25.0580   26.4320 N.3   228  MET228     -0.1245
    100  CA        45.3560  -24.0810   26.2330 C.3   228  MET228      0.1570
    101  C         46.6720  -24.7800   25.8900 C.2   228  MET228      0.2261
    102  O         47.4100  -24.3380   24.9930 O.2   228  MET228     -0.2867
    103  CB        45.4900  -23.1890   27.4720 C.3   228  MET228      0.0387
    104  CG        46.4200  -21.9880   27.2910 C.3   228  MET228      0.0595
    105  SD        46.5920  -21.0540   28.8420 S.3   228  MET228     -0.1393
    106  CE        47.7990  -19.8690   28.3220 C.3   228  MET228      0.0692
@<TRIPOS>BOND
     1   102   101    2
     2    55    53    1
     3   101   100    1
     4   100    99    1
     5   100   103    1
     6    49    48    1
     7    49    50    1
     8    49    52    1
     9    53    52    1
    10    53    54    1
    11    50    51    2
    12   104   103    1
    13   104   105    1
    14    39    37    1
    15    36    35    2
    16   106   105    1
    17    44    43    2
    18    94    93    2
    19    37    38    1
    20    37    34    1
    21    35    34    1
    22    35    41   am
    23    40    38    1
    24    42    43    1
    25    42    41    1
    26    42    45    1
    27    34    33    1
    28    93    92    1
    29    46    45    1
    30    47    45    1
    31    33    27   am
    32    28    27    2
    33    92    95    1
    34    92    91    1
    35    27    26    1
    36    95    96    1
    37    98    96    1
    38    64    63    1
    39    96    97    1
    40    23    22    2
    41    26    25    1
    42    26    29    1
    43    63    62    1
    44    22    25   am
    45    22    21    1
    46    29    30    1
    47    21    24    1
    48    21    20    1
    49    10     9    1
    50    62    61    1
    51    20    14   am
    52    30    31    1
    53    31    32    1
    54     9    11    1
    55     9     8    2
    56    61    60    1
    57    86    87    1
    58    86    85    1
    59     6     7    1
    60     6     5    1
    61    14    15    2
    62    14    13    1
    63     7     8    1
    64    87    88    2
    65    60    57    1
    66    84    85    1
    67    84    81    1
    68    88    89    1
    69    88    90    1
    70    57    56    1
    71    57    58    1
    72    68    67    2
    73    69    66    1
    74    65    58   am
    75    65    66    1
    76    13    16    1
    77    13    12    1
    78     5     2    1
    79    81    80    1
    80    81    82    1
    81    16    17    1
    82    58    59    2
    83    66    67    1
    84    67    70   am
    85    80    72   am
    86    18    17   ar
    87    17    19   ar
    88     1     2    1
    89     2     3    1
    90    72    73    2
    91    72    71    1
    92    82    83    2
    93    70    71    1
    94    71    74    1
    95     3     4    2
    96    74    75    1
    97    76    75   ar
    98    76    78   ar
    99    75    77   ar
   100    78    79   ar
   101    77    79   ar
