@<TRIPOS>MOLECULE
tmp/2bo6A00.pdb
 82 76 0 0 0
SMALL
GASTEIGER

@<TRIPOS>ATOM
      1  N        -23.2140   63.5940   43.5980 N.3   130  ARG130     -0.1245
      2  CA       -22.1150   64.0010   44.5140 C.3   130  ARG130      0.1563
      3  C        -22.6010   64.9120   45.6190 C.2   130  ARG130      0.2260
      4  O        -23.7380   65.4410   45.5710 O.2   130  ARG130     -0.2867
      5  CB       -20.9720   64.6400   43.7770 C.3   130  ARG130      0.0307
      6  CG       -20.3860   63.6830   42.7610 C.3   130  ARG130      0.0489
      7  CD       -19.4940   64.3270   41.7780 C.3   130  ARG130      0.2205
      8  NE       -18.1380   64.4500   42.3140 N.pl3 130  ARG130     -0.0865
      9  CZ       -17.0920   64.8320   41.5990 C.cat 130  ARG130      0.5346
     10  NH1      -17.2210   65.1860   40.3180 N.pl3 130  ARG130      0.1354
     11  NH2      -15.8900   64.9160   42.1950 N.pl3 130  ARG130      0.1354
     12  N        -18.5220   68.1770   47.7160 N.3   134  ASP134     -0.1225
     13  CA       -17.5910   67.5420   46.7520 C.3   134  ASP134      0.1805
     14  C        -17.7720   68.3240   45.4760 C.2   134  ASP134      0.2598
     15  O        -18.6970   69.1570   45.3760 O.2   134  ASP134     -0.2718
     16  CB       -17.9380   66.0580   46.4120 C.3   134  ASP134      0.1424
     17  CG       -17.6740   65.0630   47.5990 C.2   134  ASP134      0.3668
     18  OD1      -16.4900   65.0380   48.0830 O.co2 134  ASP134     -0.2456
     19  OD2      -18.5830   64.2890   48.1040 O.co2 134  ASP134     -0.2456
     20  N        -16.8990   68.0410   44.4980 N.am  135  ALA135     -0.1966
     21  CA       -17.0040   68.6020   43.1630 C.3   135  ALA135      0.1728
     22  C        -16.8290   70.1010   43.1390 C.2   135  ALA135      0.2616
     23  O        -17.4610   70.7600   42.3460 O.2   135  ALA135     -0.2715
     24  CB       -18.3440   68.2400   42.5420 C.3   135  ALA135      0.0334
     25  N        -15.9820   70.6430   44.0110 N.am  136  MET136     -0.1963
     26  CA       -15.7960   72.0910   44.0960 C.3   136  MET136      0.1736
     27  C        -14.8770   72.6070   42.9980 C.2   136  MET136      0.2616
     28  O        -14.9070   73.7840   42.6450 O.2   136  MET136     -0.2715
     29  CB       -15.2700   72.4860   45.4670 C.3   136  MET136      0.0427
     30  CG       -16.3000   72.3840   46.6040 C.3   136  MET136      0.0599
     31  SD       -17.7090   73.4650   46.3310 S.3   136  MET136     -0.1393
     32  CE       -18.7950   72.3460   45.5850 C.3   136  MET136      0.0692
     33  N        -14.0450   71.7410   42.4460 N.am  137  ILE137     -0.1963
     34  CA       -13.2850   72.1160   41.2790 C.3   137  ILE137      0.1727
     35  C        -14.2160   72.0850   40.0810 C.2   137  ILE137      0.2616
     36  O        -14.4050   73.0920   39.4220 O.2   137  ILE137     -0.2715
     37  CB       -12.0600   71.2170   41.0700 C.3   137  ILE137      0.0290
     38  CG1      -11.1640   71.2520   42.3070 C.3   137  ILE137      0.0022
     39  CG2      -11.2600   71.7000   39.8180 C.3   137  ILE137      0.0023
     40  CD1       -9.8960   70.3670   42.2050 C.3   137  ILE137      0.0001
     41  N        -14.8190   70.9360   39.8260 N.am  138  THR138     -0.1951
     42  CA       -15.8720   70.8440   38.8260 C.3   138  THR138      0.1897
     43  C        -16.7010   72.1240   38.7990 C.2   138  THR138      0.2313
     44  O        -16.7890   72.7310   37.7580 O.2   138  THR138     -0.2863
     45  CB       -16.7620   69.5960   39.0910 C.3   138  THR138      0.1794
     46  OG1      -16.0070   68.4040   38.8510 O.3   138  THR138     -0.2208
     47  CG2      -17.9310   69.4880   38.1210 C.3   138  THR138      0.0378
     48  N        -14.8670   66.8850   34.4110 N.3   162  LEU162     -0.1245
     49  CA       -13.5980   66.2900   34.8550 C.3   162  LEU162      0.1561
     50  C        -13.6980   64.7750   35.0390 C.2   162  LEU162      0.2260
     51  O        -12.7400   64.1340   35.4940 O.2   162  LEU162     -0.2867
     52  CB       -13.1180   66.9070   36.1810 C.3   162  LEU162      0.0270
     53  CG       -13.2090   68.4180   36.2710 C.3   162  LEU162      0.0019
     54  CD1      -12.7990   68.8470   37.6440 C.3   162  LEU162      0.0001
     55  CD2      -12.3430   69.0420   35.2150 C.3   162  LEU162      0.0001
     56  N        -13.4450   59.9120   48.1850 N.3   217  ARG217     -0.1245
     57  CA       -12.0200   60.0160   48.5180 C.3   217  ARG217      0.1563
     58  C        -11.8290   60.2450   50.0040 C.2   217  ARG217      0.2260
     59  O        -12.7790   60.2070   50.7670 O.2   217  ARG217     -0.2867
     60  CB       -11.3130   61.1240   47.6600 C.3   217  ARG217      0.0307
     61  CG       -11.8100   62.6010   47.8920 C.3   217  ARG217      0.0489
     62  CD       -10.7800   63.7660   47.5320 C.3   217  ARG217      0.2205
     63  NE       -11.0490   64.9190   48.4280 N.pl3 217  ARG217     -0.0865
     64  CZ       -10.4390   65.1930   49.6450 C.cat 217  ARG217      0.5346
     65  NH1       -9.4250   64.4500   50.1420 N.pl3 217  ARG217      0.1354
     66  NH2      -10.8430   66.2640   50.3800 N.pl3 217  ARG217      0.1354
     67  N         -6.5860   68.4680   47.1330 N.3   225  LEU225     -0.1245
     68  CA        -6.8970   68.9200   45.7800 C.3   225  LEU225      0.1561
     69  C         -6.0000   70.0450   45.1540 C.2   225  LEU225      0.2260
     70  O         -6.2930   70.5570   44.1030 O.2   225  LEU225     -0.2867
     71  CB        -8.3580   69.3690   45.7900 C.3   225  LEU225      0.0270
     72  CG        -9.4450   68.2960   45.6050 C.3   225  LEU225      0.0019
     73  CD1       -8.9760   66.8600   45.9080 C.3   225  LEU225      0.0001
     74  CD2      -10.6590   68.6890   46.4590 C.3   225  LEU225      0.0001
     75  N         -4.5050   69.3270   41.5860 N.3   228  MET228     -0.1245
     76  CA        -5.6500   69.2110   40.6700 C.3   228  MET228      0.1570
     77  C         -6.2580   70.5820   40.3480 C.2   228  MET228      0.2261
     78  O         -6.6460   70.8530   39.2190 O.2   228  MET228     -0.2867
     79  CB        -6.7380   68.2580   41.2240 C.3   228  MET228      0.0387
     80  CG        -7.7260   67.8140   40.1820 C.3   228  MET228      0.0595
     81  SD        -9.0900   66.7520   40.7590 S.3   228  MET228     -0.1393
     82  CE        -8.1260   65.4590   41.6820 C.3   228  MET228      0.0692
@<TRIPOS>BOND
     1    48    49    1
     2    49    50    1
     3    49    52    1
     4    50    51    2
     5    55    53    1
     6    52    53    1
     7    53    54    1
     8    44    43    2
     9    47    45    1
    10    43    42    1
    11    42    45    1
    12    42    41    1
    13    46    45    1
    14    78    77    2
    15    36    35    2
    16    39    37    1
    17    41    35   am
    18    35    34    1
    19    80    81    1
    20    80    79    1
    21    10     9    1
    22    77    76    1
    23    76    79    1
    24    76    75    1
    25    81    82    1
    26    37    34    1
    27    37    38    1
    28    34    33    1
    29     9    11    1
    30     9     8    2
    31     7     8    1
    32     7     6    1
    33    40    38    1
    34    23    22    2
    35    33    27   am
    36    24    21    1
    37    28    27    2
    38     6     5    1
    39    27    26    1
    40    22    21    1
    41    22    25   am
    42    21    20    1
    43     1     2    1
    44     5     2    1
    45    25    26    1
    46    26    29    1
    47    70    69    2
    48    20    14   am
    49     2     3    1
    50    69    68    1
    51    15    14    2
    52    29    30    1
    53    14    13    1
    54     4     3    2
    55    32    31    1
    56    72    71    1
    57    72    73    1
    58    72    74    1
    59    68    71    1
    60    68    67    1
    61    31    30    1
    62    16    13    1
    63    16    17    1
    64    13    12    1
    65    62    61    1
    66    62    63    1
    67    17    18   ar
    68    17    19   ar
    69    60    61    1
    70    60    57    1
    71    56    57    1
    72    63    64    2
    73    57    58    1
    74    64    65    1
    75    64    66    1
    76    58    59    2
