@<TRIPOS>MOLECULE
tmp/2bo7I00.pdb
 174 166 0 0 0
SMALL
GASTEIGER

@<TRIPOS>ATOM
      1  N        194.6380   27.6550   54.5270 N.3     6  PRO6       -0.2102
      2  CA       193.2350   28.0070   54.3550 C.3     6  PRO6        0.1504
      3  C        192.5650   28.2740   55.7010 C.2     6  PRO6        0.2576
      4  O        192.6870   27.4680   56.6270 O.2     6  PRO6       -0.2718
      5  CB       192.6470   26.7590   53.7080 C.3     6  PRO6        0.0282
      6  CG       193.4960   25.6420   54.1840 C.3     6  PRO6        0.0208
      7  CD       194.8600   26.2020   54.4190 C.3     6  PRO6        0.0893
      8  N        191.8720   29.3970   55.8240 N.am    7  PHE7       -0.1963
      9  CA       191.2410   29.7260   57.0950 C.3     7  PHE7        0.1771
     10  C        189.8230   30.2570   56.9410 C.2     7  PHE7        0.2619
     11  O        189.4910   30.9150   55.9580 O.2     7  PHE7       -0.2715
     12  CB       192.0560   30.7340   57.8860 C.3     7  PHE7        0.0574
     13  CG       192.0420   32.1130   57.2970 C.ar    7  PHE7       -0.0200
     14  CD1      192.8990   32.4400   56.2490 C.ar    7  PHE7       -0.0042
     15  CD2      191.1770   33.0870   57.7880 C.ar    7  PHE7       -0.0042
     16  CE1      192.8990   33.7100   55.7060 C.ar    7  PHE7       -0.0003
     17  CE2      191.1720   34.3650   57.2440 C.ar    7  PHE7       -0.0003
     18  CZ       192.0330   34.6760   56.2010 C.ar    7  PHE7       -0.0000
     19  N        188.9920   29.9370   57.9370 N.am    8  LYS8       -0.1977
     20  CA       187.6310   30.4340   58.0420 C.3     8  LYS8        0.1596
     21  C        187.5550   31.3240   59.2710 C.2     8  LYS8        0.2287
     22  O        187.8000   32.5250   59.1660 O.2     8  LYS8       -0.2864
     23  CB       186.6240   29.2940   58.1150 C.3     8  LYS8        0.0298
     24  CG       185.2140   29.7960   57.9840 C.3     8  LYS8        0.0038
     25  CD       184.2190   28.6890   57.8930 C.3     8  LYS8        0.0206
     26  CE       182.8480   29.2750   57.8170 C.3     8  LYS8        0.1093
     27  NZ       181.9120   28.2210   57.4180 N.3     8  LYS8       -0.1314
     28  N        189.3770   31.7840   62.8460 N.3    10  GLU10      -0.1245
     29  CA       190.4830   31.3460   63.6790 C.3    10  GLU10       0.1567
     30  C        191.1040   32.4320   64.5310 C.2    10  GLU10       0.2260
     31  O        190.9620   33.6200   64.2350 O.2    10  GLU10      -0.2867
     32  CB       191.5690   30.7030   62.8210 C.3    10  GLU10       0.0388
     33  CG       191.7820   29.2420   63.1830 C.3    10  GLU10       0.1160
     34  CD       190.7330   28.3270   62.5820 C.2    10  GLU10       0.3649
     35  OE1      190.3790   28.5130   61.4010 O.co2  10  GLU10      -0.2457
     36  OE2      190.2720   27.4180   63.2790 O.co2  10  GLU10      -0.2457
     37  N        194.4230   31.7380   52.4910 N.3    34  ILE34      -0.1245
     38  CA       193.1340   31.8600   51.8260 C.3    34  ILE34       0.1561
     39  C        191.9740   31.8220   52.7980 C.2    34  ILE34       0.2260
     40  O        191.7720   30.8490   53.5260 O.2    34  ILE34      -0.2867
     41  CB       192.9910   30.8420   50.7180 C.3    34  ILE34       0.0252
     42  CG1      193.9390   31.2520   49.6070 C.3    34  ILE34       0.0019
     43  CG2      191.5550   30.8110   50.1970 C.3    34  ILE34       0.0019
     44  CD1      193.7630   30.5040   48.3740 C.3    34  ILE34       0.0001
     45  N        187.8600   32.5830   54.0160 N.3    36  TYR36      -0.1241
     46  CA       186.4850   32.3530   53.6700 C.3    36  TYR36       0.1605
     47  C        185.8380   33.6850   53.4580 C.2    36  TYR36       0.2264
     48  O        185.2730   33.9430   52.4110 O.2    36  TYR36      -0.2867
     49  CB       185.8200   31.6400   54.8250 C.3    36  TYR36       0.0534
     50  CG       184.3540   31.3970   54.6530 C.ar   36  TYR36      -0.0201
     51  CD1      183.8900   30.3800   53.8160 C.ar   36  TYR36      -0.0009
     52  CD2      183.4210   32.1600   55.3600 C.ar   36  TYR36      -0.0009
     53  CE1      182.5400   30.1380   53.6730 C.ar   36  TYR36       0.0417
     54  CE2      182.0620   31.9290   55.2190 C.ar   36  TYR36       0.0417
     55  CZ       181.6320   30.9160   54.3740 C.ar   36  TYR36       0.1957
     56  OH       180.2940   30.6790   54.2250 O.3    36  TYR36      -0.2866
     57  N        188.7410   33.3490   49.0470 N.3    65  GLN65      -0.1245
     58  CA       188.5380   32.2570   48.1130 C.3    65  GLN65       0.1566
     59  C        187.6240   32.6800   46.9680 C.2    65  GLN65       0.2260
     60  O        186.7370   33.5180   47.1390 O.2    65  GLN65      -0.2867
     61  CB       187.9550   31.0390   48.8250 C.3    65  GLN65       0.0367
     62  CG       186.6870   31.2990   49.6420 C.3    65  GLN65       0.0905
     63  CD       186.2810   30.0790   50.4690 C.2    65  GLN65       0.2608
     64  OE1      185.2710   29.4400   50.1850 O.2    65  GLN65      -0.2717
     65  NE2      187.0810   29.7470   51.4700 N.am   65  GLN65      -0.0878
     66  N        178.3830   23.2920   48.3910 N.3    72  ARG72      -0.1245
     67  CA       178.3810   24.3590   49.3830 C.3    72  ARG72       0.1563
     68  C        179.7260   25.0470   49.2790 C.2    72  ARG72       0.2260
     69  O        180.7200   24.3680   49.1190 O.2    72  ARG72      -0.2867
     70  CB       178.1580   23.8080   50.7950 C.3    72  ARG72       0.0307
     71  CG       177.9990   24.9100   51.8600 C.3    72  ARG72       0.0489
     72  CD       177.9870   24.4220   53.2860 C.3    72  ARG72       0.2205
     73  NE       179.0470   23.4410   53.4930 N.pl3  72  ARG72      -0.0865
     74  CZ       180.2960   23.7270   53.8630 C.cat  72  ARG72       0.5346
     75  NH1      180.6710   24.9740   54.0880 N.pl3  72  ARG72       0.1354
     76  NH2      181.1830   22.7580   54.0130 N.pl3  72  ARG72       0.1354
     77  N        182.7150   26.0090   50.6370 N.3    74  GLY74      -0.1210
     78  CA       183.4900   25.7250   51.8400 C.3    74  GLY74       0.1956
     79  C        184.9860   25.6080   51.5980 C.2    74  GLY74       0.2611
     80  O        185.5630   26.3550   50.8010 O.2    74  GLY74      -0.2717
     81  N        185.6140   24.6630   52.2900 N.am   75  LYS75      -0.1979
     82  CA       187.0550   24.4830   52.2140 C.3    75  LYS75       0.1596
     83  C        187.5520   24.1620   50.7950 C.2    75  LYS75       0.2287
     84  O        188.6310   24.6130   50.4060 O.2    75  LYS75      -0.2864
     85  CB       187.5100   23.4010   53.1940 C.3    75  LYS75       0.0298
     86  CG       188.9850   23.4640   53.5600 C.3    75  LYS75       0.0038
     87  CD       189.4580   22.1450   54.1270 C.3    75  LYS75       0.0206
     88  CE       190.9390   22.1420   54.3840 C.3    75  LYS75       0.1093
     89  NZ       191.4500   20.7470   54.4320 N.3    75  LYS75      -0.1314
     90  N        188.2500   27.1550   48.9270 N.3    78  GLY78      -0.1225
     91  CA       189.4740   27.6900   49.5120 C.3    78  GLY78       0.1811
     92  C        190.7230   27.0460   48.9400 C.2    78  GLY78       0.2280
     93  O        191.6400   27.7420   48.4950 O.2    78  GLY78      -0.2866
     94  N        196.4950   23.1570   57.7660 N.3    99  ASP99      -0.1225
     95  CA       195.3800   23.7830   58.4760 C.3    99  ASP99       0.1805
     96  C        195.8710   24.9850   59.2770 C.2    99  ASP99       0.2598
     97  O        196.9540   24.9430   59.8660 O.2    99  ASP99      -0.2718
     98  CB       194.7140   22.7880   59.4190 C.3    99  ASP99       0.1424
     99  CG       193.8290   21.7820   58.6940 C.2    99  ASP99       0.3668
    100  OD1      193.7040   21.8830   57.4350 O.co2  99  ASP99      -0.2456
    101  OD2      193.2050   20.8700   59.3310 O.co2  99  ASP99      -0.2456
    102  N        195.0800   26.0530   59.2920 N.am  100  ALA100     -0.1966
    103  CA       195.4800   27.2750   59.9680 C.3   100  ALA100      0.1728
    104  C        195.4010   27.1500   61.4850 C.2   100  ALA100      0.2616
    105  O        196.0770   27.9010   62.1980 O.2   100  ALA100     -0.2715
    106  CB       194.6380   28.4230   59.4970 C.3   100  ALA100      0.0334
    107  N        194.5890   26.2050   61.9710 N.am  101  ASP101     -0.1971
    108  CA       194.3130   26.1040   63.4010 C.3   101  ASP101      0.1709
    109  C        195.3910   25.3860   64.2190 C.2   101  ASP101      0.2293
    110  O        195.3510   25.4180   65.4530 O.2   101  ASP101     -0.2864
    111  CB       192.9110   25.5480   63.6660 C.3   101  ASP101      0.1436
    112  CG       192.7530   24.0760   63.2950 C.2   101  ASP101      0.3671
    113  OD1      193.3240   23.5530   62.3190 O.co2 101  ASP101     -0.2456
    114  OD2      191.9920   23.3490   63.9230 O.co2 101  ASP101     -0.2456
    115  N        191.5740   12.2960   54.9830 N.3   162  LEU162     -0.1245
    116  CA       190.9140   13.5960   55.1220 C.3   162  LEU162      0.1561
    117  C        191.8950   14.6960   55.4670 C.2   162  LEU162      0.2260
    118  O        191.5130   15.8690   55.5230 O.2   162  LEU162     -0.2867
    119  CB       189.7960   13.5610   56.1570 C.3   162  LEU162      0.0270
    120  CG       188.7380   12.4950   55.9240 C.3   162  LEU162      0.0019
    121  CD1      187.6610   12.6080   56.9770 C.3   162  LEU162      0.0001
    122  CD2      188.1640   12.6030   54.5280 C.3   162  LEU162      0.0001
    123  N        183.4390   20.2350   52.1860 N.3   188  TRP188     -0.1241
    124  CA       184.3790   19.4040   52.9460 C.3   188  TRP188      0.1605
    125  C        184.8490   18.1800   52.1650 C.2   188  TRP188      0.2264
    126  O        185.7960   17.4980   52.5720 O.2   188  TRP188     -0.2867
    127  CB       183.7740   18.9320   54.2610 C.3   188  TRP188      0.0550
    128  CG       183.7610   19.9310   55.3540 C.ar  188  TRP188      0.0003
    129  CD1      182.6670   20.5270   55.8870 C.ar  188  TRP188      0.0946
    130  CD2      184.8780   20.4240   56.0920 C.ar  188  TRP188      0.0152
    131  NE1      183.0260   21.3780   56.9040 N.ar  188  TRP188     -0.2442
    132  CE2      184.3790   21.3350   57.0530 C.ar  188  TRP188      0.0810
    133  CE3      186.2580   20.1940   56.0400 C.ar  188  TRP188      0.0012
    134  CZ2      185.1940   22.0120   57.9420 C.ar  188  TRP188      0.0191
    135  CZ3      187.0830   20.8780   56.9260 C.ar  188  TRP188      0.0001
    136  CH2      186.5440   21.7750   57.8690 C.ar  188  TRP188      0.0015
    137  N        199.0530   16.6300   66.0030 N.3   214  LYS214     -0.1245
    138  CA       198.5030   17.8620   65.4580 C.3   214  LYS214      0.1561
    139  C        197.5400   18.5100   66.4590 C.2   214  LYS214      0.2260
    140  O        196.3240   18.2670   66.4250 O.2   214  LYS214     -0.2867
    141  CB       197.8010   17.5350   64.1360 C.3   214  LYS214      0.0271
    142  CG       197.0400   18.6520   63.4580 C.3   214  LYS214      0.0035
    143  CD       196.2140   18.0600   62.3340 C.3   214  LYS214      0.0206
    144  CE       195.3460   19.1090   61.6830 C.3   214  LYS214      0.1093
    145  NZ       194.4420   18.5450   60.6360 N.3   214  LYS214     -0.1314
    146  N        195.2420   21.3530   67.6000 N.3   216  HIS216     -0.1226
    147  CA       194.4870   22.3350   66.8260 C.3   216  HIS216      0.1752
    148  C        193.2500   22.7920   67.6280 C.2   216  HIS216      0.2598
    149  O        193.0360   22.3230   68.7510 O.2   216  HIS216     -0.2717
    150  CB       194.1380   21.7320   65.4560 C.3   216  HIS216      0.0759
    151  CG       193.0800   20.6740   65.5100 C.ar  216  HIS216      0.0818
    152  ND1      192.0410   20.6060   64.5950 N.ar  216  HIS216     -0.2268
    153  CD2      192.8630   19.6730   66.4000 C.ar  216  HIS216      0.1154
    154  CE1      191.2300   19.6130   64.9250 C.ar  216  HIS216      0.1986
    155  NE2      191.7100   19.0290   66.0140 N.ar  216  HIS216     -0.2212
    156  N        192.4440   23.7060   67.0800 N.am  217  ARG217     -0.1934
    157  CA       191.1690   24.1570   67.7290 C.3   217  ARG217      0.1813
    158  C        190.1280   23.0230   67.9800 C.2   217  ARG217      0.2332
    159  O        189.8470   22.1900   67.1060 O.2   217  ARG217     -0.2860
    160  CB       190.5370   25.2900   66.9000 C.2   217  ARG217      0.0019
    161  CG       189.2800   25.9540   67.4880 C.2   217  ARG217      0.0178
    162  CD       188.5820   26.9810   66.5650 C.3   217  ARG217      0.2464
    163  NE       188.7990   26.6630   65.1590 N.pl3 217  ARG217     -0.0815
    164  CZ       188.1820   25.7000   64.4790 C.cat 217  ARG217      0.5349
    165  NH1      187.2630   24.9520   65.0600 N.pl3 217  ARG217      0.1354
    166  NH2      188.4840   25.4910   63.2020 N.pl3 217  ARG217      0.1354
    167  N        180.2750   18.1490   58.0890 N.3   223  MET223     -0.1245
    168  CA       181.4430   17.4840   57.6180 C.3   223  MET223      0.1570
    169  C        181.1060   16.0430   57.3300 C.2   223  MET223      0.2261
    170  O        181.4990   15.5120   56.3050 O.2   223  MET223     -0.2867
    171  CB       182.5390   17.5680   58.6590 C.3   223  MET223      0.0387
    172  CG       183.8750   17.4030   58.0380 C.3   223  MET223      0.0595
    173  SD       185.2240   17.4510   59.1970 S.3   223  MET223     -0.1393
    174  CE       184.9120   18.8960   60.2500 C.3   223  MET223      0.0692
@<TRIPOS>BOND
     1    59    60    2
     2    59    58    1
     3    58    61    1
     4    58    57    1
     5    44    42    1
     6    66    67    1
     7    93    92    2
     8    61    62    1
     9    90    91    1
    10    92    91    1
    11    69    68    2
    12    68    67    1
    13    67    70    1
    14    42    41    1
    15    62    63    1
    16    64    63    2
    17    43    41    1
    18    84    83    2
    19    63    65   am
    20    77    78    1
    21    41    38    1
    22    83    82    1
    23    70    71    1
    24    80    79    2
    25    79    78    1
    26    79    81   am
    27    38    37    1
    28    38    39    1
    29    71    72    1
    30   125   126    2
    31   125   124    1
    32   123   124    1
    33    82    81    1
    34    82    85    1
    35    48    47    2
    36    39    40    2
    37   124   127    1
    38    85    86    1
    39    72    73    1
    40    47    46    1
    41    73    74    2
    42    86    87    1
    43    46    45    1
    44    46    49    1
    45    53    51   ar
    46    53    55   ar
    47     5     6    1
    48     5     2    1
    49    51    50   ar
    50    74    76    1
    51    74    75    1
    52    87    88    1
    53     6     7    1
    54    56    55    1
    55   127   128    1
    56     2     1    1
    57     2     3    1
    58    55    54   ar
    59    88    89    1
    60     7     1    1
    61   122   120    1
    62    50    49    1
    63    50    52   ar
    64   115   116    1
    65   116   117    1
    66   116   119    1
    67    54    52   ar
    68   128   129   ar
    69   128   130   ar
    70   117   118    2
    71     3     8   am
    72     3     4    2
    73    16    18   ar
    74    16    14   ar
    75     8     9    1
    76   129   131   ar
    77   120   119    1
    78   120   121    1
    79    11    10    2
    80   133   130   ar
    81   133   135   ar
    82   130   132   ar
    83    18    17   ar
    84    14    13   ar
    85   170   169    2
    86   131   132   ar
    87   135   136   ar
    88    10     9    1
    89    10    19   am
    90   132   134   ar
    91     9    12    1
    92    17    15   ar
    93    13    15   ar
    94    13    12    1
    95   169   168    1
    96    27    26    1
    97   100    99   ar
    98   168   167    1
    99   168   171    1
   100    94    95    1
   101    26    25    1
   102   136   134   ar
   103    25    24    1
   104    19    20    1
   105    24    23    1
   106   172   171    1
   107   172   173    1
   108    20    23    1
   109    20    21    1
   110    95    96    1
   111    95    98    1
   112    99   101   ar
   113    99    98    1
   114    22    21    2
   115   173   174    1
   116    96   102   am
   117    96    97    2
   118   102   103    1
   119   106   103    1
   120   103   104    1
   121   145   144    1
   122    35    34   ar
   123   104   107   am
   124   104   105    2
   125   144   143    1
   126   107   108    1
   127   113   112   ar
   128   143   142    1
   129    34    33    1
   130    34    36   ar
   131    32    33    1
   132    32    29    1
   133    28    29    1
   134   166   164    1
   135   112   111    1
   136   112   114   ar
   137   108   111    1
   138   108   109    1
   139   142   141    1
   140    29    30    1
   141   141   138    1
   142   109   110    2
   143    31    30    2
   144   164   165    1
   145   164   163    2
   146   152   154   ar
   147   152   151   ar
   148   154   155   ar
   149   163   162    1
   150   150   151    1
   151   150   147    1
   152   138   137    1
   153   138   139    1
   154   151   153   ar
   155   155   153   ar
   156   140   139    2
   157   162   161    1
   158   147   146    1
   159   147   148    1
   160   160   161    2
   161   160   157    1
   162   156   148   am
   163   156   157    1
   164   159   158    2
   165   148   149    2
   166   157   158    1
