@<TRIPOS>MOLECULE
tmp/2bo8G00.pdb
 219 208 0 0 0
SMALL
GASTEIGER

@<TRIPOS>ATOM
      1  N        122.8380   39.8610   95.1650 N.3     6  PRO6       -0.2102
      2  CA       123.6740   39.1640   96.1250 C.3     6  PRO6        0.1504
      3  C        125.0660   39.7790   96.1660 C.2     6  PRO6        0.2576
      4  O        125.6580   40.0150   95.1170 O.2     6  PRO6       -0.2718
      5  CB       123.7270   37.7360   95.5710 C.3     6  PRO6        0.0282
      6  CG       123.4090   37.8330   94.0880 C.3     6  PRO6        0.0208
      7  CD       122.6670   39.1090   93.8940 C.3     6  PRO6        0.0893
      8  N        125.5850   40.0510   97.3550 N.am    7  PHE7       -0.1963
      9  CA       126.8910   40.6280   97.4430 C.3     7  PHE7        0.1771
     10  C        127.7240   39.9260   98.4970 C.2     7  PHE7        0.2619
     11  O        127.2170   39.5160   99.5770 O.2     7  PHE7       -0.2715
     12  CB       126.7920   42.1330   97.7080 C.3     7  PHE7        0.0574
     13  CG       126.2350   42.4910   99.0790 C.ar    7  PHE7       -0.0200
     14  CD1      124.8520   42.5790   99.2880 C.ar    7  PHE7       -0.0042
     15  CD2      127.1040   42.7710  100.1600 C.ar    7  PHE7       -0.0042
     16  CE1      124.3330   42.9240  100.5480 C.ar    7  PHE7       -0.0003
     17  CE2      126.5940   43.1180  101.4700 C.ar    7  PHE7       -0.0003
     18  CZ       125.2090   43.1990  101.6630 C.ar    7  PHE7       -0.0000
     19  N        129.0090   39.7890   98.1740 N.am    8  LYS8       -0.1977
     20  CA       129.9910   39.4090   99.1950 C.3     8  LYS8        0.1596
     21  C        130.8670   40.6070   99.6940 C.2     8  LYS8        0.2287
     22  O        130.6040   41.2210  100.7150 O.2     8  LYS8       -0.2864
     23  CB       130.8320   38.2090   98.7200 C.3     8  LYS8        0.0298
     24  CG       131.6240   37.5940   99.8910 C.3     8  LYS8        0.0038
     25  CD       132.2820   36.2900   99.5120 C.3     8  LYS8        0.0206
     26  CE       133.0980   35.8240  100.6970 C.3     8  LYS8        0.1093
     27  NZ       133.6150   34.4690  100.4660 N.3     8  LYS8       -0.1314
     28  N        131.9480   44.1260   98.0730 N.3    10  GLU10      -0.1245
     29  CA       131.9700   45.0710   96.9560 C.3    10  GLU10       0.1567
     30  C        132.1000   46.5140   97.3690 C.2    10  GLU10       0.2260
     31  O        131.9510   46.8530   98.5420 O.2    10  GLU10      -0.2867
     32  CB       130.7850   44.8960   96.0120 C.3    10  GLU10       0.0388
     33  CG       131.2330   44.2950   94.6940 C.3    10  GLU10       0.1160
     34  CD       131.1120   42.7900   94.7210 C.2    10  GLU10       0.3649
     35  OE1      130.3560   42.2870   95.5990 O.co2  10  GLU10      -0.2457
     36  OE2      131.7640   42.1270   93.8770 O.co2  10  GLU10      -0.2457
     37  N        121.2050   40.6970   99.3800 N.3    34  ILE34      -0.1245
     38  CA       121.6260   39.5350  100.1600 C.3    34  ILE34       0.1561
     39  C        123.1390   39.5240  100.4600 C.2    34  ILE34       0.2260
     40  O        123.9590   39.3230   99.5710 O.2    34  ILE34      -0.2867
     41  CB       121.1380   38.1710   99.5500 C.3    34  ILE34       0.0252
     42  CG1      119.6280   38.0320   99.7210 C.3    34  ILE34       0.0019
     43  CG2      121.6530   36.9930  100.3950 C.3    34  ILE34       0.0019
     44  CD1      119.1530   38.0140  101.3340 C.3    34  ILE34       0.0001
     45  N        126.7040   38.2420  102.2770 N.3    36  TYR36      -0.1241
     46  CA       127.4920   37.2140  102.9200 C.3    36  TYR36       0.1605
     47  C        127.7110   37.4920  104.3760 C.2    36  TYR36       0.2264
     48  O        127.4100   36.6400  105.1890 O.2    36  TYR36      -0.2867
     49  CB       128.8460   37.1310  102.2490 C.3    36  TYR36       0.0534
     50  CG       129.7400   36.0710  102.8150 C.ar   36  TYR36      -0.0201
     51  CD1      129.5450   34.7210  102.4780 C.ar   36  TYR36      -0.0009
     52  CD2      130.8100   36.4130  103.6450 C.ar   36  TYR36      -0.0009
     53  CE1      130.3660   33.7380  102.9870 C.ar   36  TYR36       0.0417
     54  CE2      131.6460   35.4340  104.1470 C.ar   36  TYR36       0.0417
     55  CZ       131.4060   34.1010  103.7920 C.ar   36  TYR36       0.1957
     56  OH       132.1860   33.0980  104.2500 O.3    36  TYR36      -0.2866
     57  N        122.6550   36.2780  104.4130 N.3    65  GLN65      -0.1245
     58  CA       122.2300   34.9390  103.9240 C.3    65  GLN65       0.1566
     59  C        122.0330   33.9590  105.1300 C.2    65  GLN65       0.2260
     60  O        122.6700   34.0680  106.1540 O.2    65  GLN65      -0.2867
     61  CB       123.1860   34.3580  102.8530 C.3    65  GLN65       0.0367
     62  CG       124.6350   34.1370  103.3600 C.3    65  GLN65       0.0905
     63  CD       125.5660   33.7900  102.1910 C.2    65  GLN65       0.2608
     64  OE1      126.2010   32.7190  102.2030 O.2    65  GLN65      -0.2717
     65  NE2      125.6280   34.6960  101.1630 N.am   65  GLN65      -0.0878
     66  N        130.0260   24.5720  100.4680 N.3    72  ARG72      -0.1245
     67  CA       130.7500   25.7200  101.1240 C.3    72  ARG72       0.1563
     68  C        129.6410   26.7960  101.3240 C.2    72  ARG72       0.2260
     69  O        128.7480   26.9130  100.4960 O.2    72  ARG72      -0.2867
     70  CB       131.8490   26.2600  100.1820 C.3    72  ARG72       0.0307
     71  CG       132.7480   27.3370  100.8740 C.3    72  ARG72       0.0489
     72  CD       133.8670   27.8920   99.9530 C.3    72  ARG72       0.2205
     73  NE       133.3910   28.1720   98.6080 N.pl3  72  ARG72      -0.0865
     74  CZ       132.7100   29.2690   98.2370 C.cat  72  ARG72       0.5346
     75  NH1      132.4520   30.2120   99.1850 N.pl3  72  ARG72       0.1354
     76  NH2      132.2750   29.4230   96.9350 N.pl3  72  ARG72       0.1354
     77  N        128.3410   29.9060  100.4810 N.3    74  GLY74      -0.1210
     78  CA       128.6550   30.9170   99.4600 C.3    74  GLY74       0.1956
     79  C        127.4270   31.4190   98.6140 C.2    74  GLY74       0.2611
     80  O        126.2410   31.6310   99.1040 O.2    74  GLY74      -0.2717
     81  N        127.7250   31.6480   97.3380 N.am   75  LYS75      -0.1979
     82  CA       126.6810   32.3460   96.5920 C.3    75  LYS75       0.1596
     83  C        125.2940   31.6170   96.6140 C.2    75  LYS75       0.2287
     84  O        124.2230   32.2780   96.7590 O.2    75  LYS75      -0.2864
     85  CB       127.0690   32.6260   95.1130 C.3    75  LYS75       0.0298
     86  CG       126.1970   33.7300   94.5260 C.3    75  LYS75       0.0038
     87  CD       126.1420   33.6060   92.9850 C.3    75  LYS75       0.0206
     88  CE       125.5100   34.8090   92.2510 C.3    75  LYS75       0.1093
     89  NZ       125.1750   34.4650   90.7490 N.3    75  LYS75      -0.1314
     90  N        123.2700   32.4990   99.3260 N.3    78  GLY78      -0.1225
     91  CA       122.8440   33.8720   99.1500 C.3    78  GLY78       0.1811
     92  C        121.5070   33.8730   98.4200 C.2    78  GLY78       0.2280
     93  O        120.4730   34.3380   98.9560 O.2    78  GLY78      -0.2866
     94  N        124.0460   40.4270   89.5200 N.3    99  ASP99      -0.1225
     95  CA       125.2920   40.5400   90.2900 C.3    99  ASP99       0.1805
     96  C        125.5290   41.9600   90.7760 C.2    99  ASP99       0.2598
     97  O        125.2060   42.9210   90.0780 O.2    99  ASP99      -0.2718
     98  CB       126.4700   40.0900   89.4460 C.3    99  ASP99       0.1424
     99  CG       126.5670   38.5890   89.3560 C.2    99  ASP99       0.3668
    100  OD1      125.7360   37.8760   89.9920 O.co2  99  ASP99      -0.2456
    101  OD2      127.5000   38.1310   88.6630 O.co2  99  ASP99      -0.2456
    102  N        126.0830   42.0800   91.9780 N.am  100  ALA100     -0.1966
    103  CA       126.1780   43.3700   92.6630 C.3   100  ALA100      0.1728
    104  C        127.2930   44.1860   92.0590 C.2   100  ALA100      0.2616
    105  O        127.2700   45.4130   92.1570 O.2   100  ALA100     -0.2715
    106  CB       126.4110   43.1840   94.1490 C.3   100  ALA100      0.0334
    107  N        128.2540   43.5110   91.4210 N.am  101  ASP101     -0.1971
    108  CA       129.4900   44.1600   90.9750 C.3   101  ASP101      0.1709
    109  C        129.3880   44.7570   89.5670 C.2   101  ASP101      0.2293
    110  O        130.3870   45.2210   89.0130 O.2   101  ASP101     -0.2864
    111  CB       130.6940   43.2000   91.1160 C.3   101  ASP101      0.1436
    112  CG       130.6490   42.0280   90.1400 C.2   101  ASP101      0.3671
    113  OD1      129.5380   41.5810   89.7490 O.co2 101  ASP101     -0.2456
    114  OD2      131.7380   41.5440   89.7540 O.co2 101  ASP101     -0.2456
    115  N        131.1570   38.9000   74.7760 N.3   130  ARG130     -0.1245
    116  CA       132.3230   38.4310   75.5510 C.3   130  ARG130      0.1563
    117  C        133.5910   38.6350   74.7740 C.2   130  ARG130      0.2260
    118  O        133.6130   38.5730   73.5090 O.2   130  ARG130     -0.2867
    119  CB       132.2300   36.9380   75.8760 C.3   130  ARG130      0.0307
    120  CG       130.9640   36.5630   76.6340 C.3   130  ARG130      0.0489
    121  CD       130.7420   37.4010   77.9440 C.3   130  ARG130      0.2205
    122  NE       131.1810   36.6800   79.1440 N.pl3 130  ARG130     -0.0865
    123  CZ       130.8100   36.9500   80.3850 C.cat 130  ARG130      0.5346
    124  NH1      129.9700   37.9470   80.6230 N.pl3 130  ARG130      0.1354
    125  NH2      131.3000   36.2100   81.3740 N.pl3 130  ARG130      0.1354
    126  N        126.1680   30.0340   83.5520 N.3   162  LEU162     -0.1231
    127  CA       126.6340   30.5290   84.8830 C.3   162  LEU162      0.1693
    128  C        126.1740   31.9570   85.1930 C.2   162  LEU162      0.2593
    129  O        126.6050   32.5280   86.2280 O.2   162  LEU162     -0.2718
    130  CB       128.1670   30.4370   85.0750 C.3   162  LEU162      0.0284
    131  CG       128.8230   29.1390   84.6140 C.3   162  LEU162      0.0019
    132  CD1      130.2970   29.3050   84.7970 C.3   162  LEU162      0.0001
    133  CD2      128.3130   27.9170   85.3420 C.3   162  LEU162      0.0001
    134  N        125.3170   32.5110   84.3090 N.am  163  GLY163     -0.1942
    135  CA       124.9340   33.9310   84.3590 C.3   163  GLY163      0.2014
    136  C        124.1540   34.2300   85.6260 C.2   163  GLY163      0.2639
    137  O        123.1500   33.5330   85.9550 O.2   163  GLY163     -0.2714
    138  N        124.6170   35.2340   86.3840 N.am  164  GLY164     -0.1954
    139  CA       123.8810   35.6560   87.5800 C.3   164  GLY164      0.1869
    140  C        122.6930   36.5590   87.2940 C.2   164  GLY164      0.2309
    141  O        121.9810   36.9240   88.2040 O.2   164  GLY164     -0.2863
    142  N        129.4510   28.0260   94.7100 N.3   188  TRP188     -0.1241
    143  CA       129.4320   28.6500   93.4290 C.3   188  TRP188      0.1605
    144  C        128.5690   27.8340   92.4990 C.2   188  TRP188      0.2264
    145  O        128.2140   28.3010   91.3740 O.2   188  TRP188     -0.2867
    146  CB       130.8340   28.7250   92.8150 C.3   188  TRP188      0.0550
    147  CG       131.6790   29.8950   93.2750 C.ar  188  TRP188      0.0003
    148  CD1      132.8910   29.8120   93.8950 C.ar  188  TRP188      0.0946
    149  CD2      131.3890   31.3200   93.1410 C.ar  188  TRP188      0.0152
    150  NE1      133.3750   31.0780   94.1630 N.ar  188  TRP188     -0.2442
    151  CE2      132.4840   32.0220   93.7120 C.ar  188  TRP188      0.0810
    152  CE3      130.3260   32.0620   92.5800 C.ar  188  TRP188      0.0012
    153  CZ2      132.5400   33.4350   93.7790 C.ar  188  TRP188      0.0191
    154  CZ3      130.3880   33.4830   92.6490 C.ar  188  TRP188      0.0001
    155  CH2      131.4880   34.1420   93.2690 C.ar  188  TRP188      0.0015
    156  N        124.3050   28.6040   90.0850 N.3   191  ASP191     -0.1295
    157  CA       123.7860   29.0100   88.8460 C.3   191  ASP191      0.1359
    158  C        123.7360   27.7930   87.9210 C.3   191  ASP191      0.2015
    159  O        122.8500   27.7470   86.9200 O.3   191  ASP191     -0.2188
    160  CB       124.7330   30.0500   88.2690 C.3   191  ASP191      0.1357
    161  CG       125.0250   31.1730   89.2550 C.2   191  ASP191      0.3664
    162  OD1      126.2090   31.1800   89.7150 O.co2 191  ASP191     -0.2456
    163  OD2      124.0980   32.0090   89.5840 O.co2 191  ASP191     -0.2456
    164  N        128.3030   43.3340   80.2340 N.3   214  LYS214     -0.1245
    165  CA       128.3400   43.2510   81.6900 C.3   214  LYS214      0.1561
    166  C        129.7340   43.6690   82.1850 C.2   214  LYS214      0.2260
    167  O        130.6570   42.8590   82.2080 O.2   214  LYS214     -0.2867
    168  CB       128.0150   41.8120   82.1270 C.3   214  LYS214      0.0271
    169  CG       128.1060   41.5600   83.6340 C.3   214  LYS214      0.0035
    170  CD       127.8010   40.1200   84.0090 C.3   214  LYS214      0.0206
    171  CE       128.0510   39.8790   85.5150 C.3   214  LYS214      0.1093
    172  NZ       127.6270   38.5070   86.0050 N.3   214  LYS214     -0.1314
    173  N        132.1040   44.2240   84.9890 N.3   216  HIS216     -0.1226
    174  CA       132.2320   43.8430   86.4010 C.3   216  HIS216      0.1752
    175  C        133.6960   43.5480   86.7560 C.2   216  HIS216      0.2595
    176  O        134.5770   43.6720   85.8830 O.2   216  HIS216     -0.2718
    177  CB       131.3520   42.6220   86.6990 C.3   216  HIS216      0.0759
    178  CG       131.8150   41.3670   86.0160 C.ar  216  HIS216      0.0818
    179  ND1      132.5850   40.4130   86.6520 N.ar  216  HIS216     -0.2268
    180  CD2      131.6320   40.9180   84.7500 C.ar  216  HIS216      0.1154
    181  CE1      132.8500   39.4300   85.8070 C.ar  216  HIS216      0.1986
    182  NE2      132.2830   39.7120   84.6480 N.ar  216  HIS216     -0.2212
    183  N        133.9340   43.1490   88.0180 N.am  217  ARG217     -0.1980
    184  CA       135.2690   42.8130   88.5560 C.3   217  ARG217      0.1597
    185  C        136.1430   41.9220   87.6060 C.2   217  ARG217      0.2287
    186  O        135.6590   40.9190   87.0470 O.2   217  ARG217     -0.2864
    187  CB       135.0950   42.1820   89.9470 C.3   217  ARG217      0.0334
    188  CG       136.2610   42.4150   91.0100 C.3   217  ARG217      0.0492
    189  CD       135.7820   42.6570   92.5390 C.3   217  ARG217      0.2205
    190  NE       134.5200   41.9850   92.9140 N.pl3 217  ARG217     -0.0865
    191  CZ       134.1900   40.7240   92.5870 C.cat 217  ARG217      0.5346
    192  NH1      135.0510   39.9470   91.9260 N.pl3 217  ARG217      0.1354
    193  NH2      132.9950   40.2200   92.9190 N.pl3 217  ARG217      0.1354
    194  N        139.9090   39.7660   86.3520 N.3   219  TYR219     -0.1241
    195  CA       140.7530   38.6840   86.9060 C.3   219  TYR219      0.1605
    196  C        142.2260   38.8890   86.6250 C.2   219  TYR219      0.2264
    197  O        142.5640   39.4560   85.6010 O.2   219  TYR219     -0.2867
    198  CB       140.3180   37.3220   86.3400 C.3   219  TYR219      0.0534
    199  CG       138.8110   37.0510   86.4060 C.ar  219  TYR219     -0.0201
    200  CD1      138.0550   36.9220   85.2150 C.ar  219  TYR219     -0.0009
    201  CD2      138.1430   36.9270   87.6560 C.ar  219  TYR219     -0.0009
    202  CE1      136.6760   36.6640   85.2610 C.ar  219  TYR219      0.0417
    203  CE2      136.7540   36.6740   87.7210 C.ar  219  TYR219      0.0417
    204  CZ       136.0270   36.5350   86.5190 C.ar  219  TYR219      0.1957
    205  OH       134.6600   36.2870   86.5600 O.3   219  TYR219     -0.2866
    206  N        135.9190   28.5740   92.2010 N.3   228  MET228     -0.1245
    207  CA       134.7600   28.6010   91.3760 C.3   228  MET228      0.1570
    208  C        134.8450   27.4430   90.3820 C.2   228  MET228      0.2261
    209  O        133.8430   26.7160   90.1400 O.2   228  MET228     -0.2867
    210  CB       134.6480   29.9520   90.6980 C.3   228  MET228      0.0387
    211  CG       133.3610   30.0790   89.9200 C.3   228  MET228      0.0595
    212  SD       133.2380   31.6440   89.0340 S.3   228  MET228     -0.1393
    213  CE       133.6080   32.8360   90.3550 C.3   228  MET228      0.0692
    214  N        132.2520   24.5770   90.2670 N.3   232  CYS232     -0.1292
    215  CA       131.3900   24.4370   89.1030 C.3   232  CYS232      0.1363
    216  C        131.5340   23.0530   88.4650 C.3   232  CYS232      0.2019
    217  O        130.5460   22.5440   87.8020 O.3   232  CYS232     -0.2188
    218  CB       131.6290   25.5120   88.0140 C.3   232  CYS232      0.0903
    219  SG       131.3320   27.1900   88.6360 S.3   232  CYS232     -0.0805
@<TRIPOS>BOND
     1   118   117    2
     2   117   116    1
     3   115   116    1
     4   116   119    1
     5   119   120    1
     6   120   121    1
     7   121   122    1
     8   122   123    2
     9   164   165    1
    10   123   124    1
    11   123   125    1
    12   165   168    1
    13   165   166    1
    14   168   169    1
    15   166   167    2
    16   126   127    1
    17   169   170    1
    18   170   171    1
    19   134   135    1
    20   134   128   am
    21   135   136    1
    22   131   132    1
    23   131   130    1
    24   131   133    1
    25   182   180   ar
    26   182   181   ar
    27   180   178   ar
    28   127   130    1
    29   127   128    1
    30   173   174    1
    31   128   129    2
    32   200   202   ar
    33   200   199   ar
    34   202   204   ar
    35   171   172    1
    36   197   196    2
    37   136   137    2
    38   136   138   am
    39   181   179   ar
    40   176   175    2
    41   178   179   ar
    42   178   177    1
    43   198   199    1
    44   198   195    1
    45   194   195    1
    46   138   139    1
    47   174   177    1
    48   174   175    1
    49   199   201   ar
    50   204   205    1
    51   204   203   ar
    52   196   195    1
    53   175   183   am
    54   159   158    1
    55   186   185    2
    56   140   139    1
    57   140   141    2
    58   185   184    1
    59   201   203   ar
    60   217   216    1
    61   158   157    1
    62   218   219    1
    63   218   215    1
    64   183   184    1
    65   160   157    1
    66   160   161    1
    67   216   215    1
    68   184   187    1
    69   101    99   ar
    70   157   156    1
    71   110   109    2
    72   212   211    1
    73   212   213    1
    74   215   214    1
    75   161   163   ar
    76   161   162   ar
    77    99    98    1
    78    99   100   ar
    79    98    95    1
    80    94    95    1
    81   109   108    1
    82   113   112   ar
    83   114   112   ar
    84   211   210    1
    85   187   188    1
    86    97    96    2
    87   209   208    2
    88   112   111    1
    89    95    96    1
    90   208   207    1
    91   210   207    1
    92    89    88    1
    93    96   102   am
    94   108   111    1
    95   108   107    1
    96   188   189    1
    97   145   144    2
    98   207   206    1
    99   107   104   am
   100   192   191    1
   101   102   103    1
   102   104   105    2
   103   104   103    1
   104    88    87    1
   105   144   143    1
   106   189   190    1
   107   152   154   ar
   108   152   149   ar
   109   191   190    2
   110   191   193    1
   111   154   155   ar
   112   103   106    1
   113   146   147    1
   114   146   143    1
   115    87    86    1
   116   149   147   ar
   117   149   151   ar
   118   155   153   ar
   119   147   148   ar
   120   143   142    1
   121   151   153   ar
   122   151   150   ar
   123    36    34   ar
   124     7     6    1
   125     7     1    1
   126   148   150   ar
   127     6     5    1
   128    86    85    1
   129    33    34    1
   130    33    32    1
   131    34    35   ar
   132    85    82    1
   133     4     3    2
   134     1     2    1
   135     5     2    1
   136    32    29    1
   137     2     3    1
   138     3     8   am
   139    82    83    1
   140    82    81    1
   141    83    84    2
   142    76    74    1
   143    29    30    1
   144    29    28    1
   145    81    79   am
   146     8     9    1
   147    30    31    2
   148     9    12    1
   149     9    10    1
   150    12    13    1
   151    19    10   am
   152    19    20    1
   153    74    73    2
   154    74    75    1
   155    92    93    2
   156    92    91    1
   157    10    11    2
   158    73    72    1
   159    79    80    2
   160    79    78    1
   161    23    20    1
   162    23    24    1
   163    13    14   ar
   164    13    15   ar
   165    91    90    1
   166    20    21    1
   167    14    16   ar
   168    37    38    1
   169    78    77    1
   170    25    24    1
   171    25    26    1
   172    41    42    1
   173    41    38    1
   174    41    43    1
   175    40    39    2
   176    21    22    2
   177    42    44    1
   178    72    71    1
   179    15    17   ar
   180    38    39    1
   181    70    71    1
   182    70    67    1
   183    27    26    1
   184    66    67    1
   185    69    68    2
   186    16    18   ar
   187    67    68    1
   188    65    63   am
   189    17    18   ar
   190    63    64    2
   191    63    62    1
   192    49    50    1
   193    49    46    1
   194    45    46    1
   195    51    50   ar
   196    51    53   ar
   197    50    52   ar
   198    61    62    1
   199    61    58    1
   200    46    47    1
   201    53    55   ar
   202    52    54   ar
   203    55    54   ar
   204    55    56    1
   205    58    57    1
   206    58    59    1
   207    47    48    2
   208    59    60    2
