@<TRIPOS>MOLECULE
tmp/2bokA00.pdb
 181 179 0 0 0
SMALL
GASTEIGER

@<TRIPOS>ATOM
      1  N          6.9220   17.2560   21.3080 N.3    26  PHE26      -0.1241
      2  CA         5.5120   16.9060   21.0790 C.3    26  PHE26       0.1605
      3  C          5.2050   15.4170   21.2760 C.2    26  PHE26       0.2264
      4  O          4.0410   15.0180   21.2910 O.2    26  PHE26      -0.2867
      5  CB         5.0650   17.3300   19.6720 C.3    26  PHE26       0.0534
      6  CG         5.7910   16.6290   18.5600 C.ar   26  PHE26      -0.0203
      7  CD1        5.2710   15.4660   17.9930 C.ar   26  PHE26      -0.0042
      8  CD2        6.9960   17.1390   18.0690 C.ar   26  PHE26      -0.0042
      9  CE1        5.9370   14.8190   16.9500 C.ar   26  PHE26      -0.0003
     10  CE2        7.6710   16.4930   17.0340 C.ar   26  PHE26      -0.0003
     11  CZ         7.1400   15.3340   16.4770 C.ar   26  PHE26      -0.0000
     12  N          1.2430    7.2670   15.4170 N.3    42  HIS42      -0.1241
     13  CA         0.4180    8.4840   15.4910 C.3    42  HIS42       0.1621
     14  C          1.2260    9.7740   15.6920 C.2    42  HIS42       0.2264
     15  O          0.7500   10.8700   15.3790 O.2    42  HIS42      -0.2867
     16  CB        -0.7150    8.3510   16.5210 C.3    42  HIS42       0.0745
     17  CG        -0.3140    8.6800   17.9320 C.ar   42  HIS42       0.0817
     18  ND1        0.0440    7.7160   18.8480 N.ar   42  HIS42      -0.2268
     19  CD2       -0.2330    9.8650   18.5830 C.ar   42  HIS42       0.1154
     20  CE1        0.3450    8.2930   19.9980 C.ar   42  HIS42       0.1986
     21  NE2        0.1850    9.5970   19.8640 N.ar   42  HIS42      -0.2212
     22  N          1.9200   14.5380   13.9050 N.3    46  GLN46      -0.1245
     23  CA         1.8160   15.6230   14.8800 C.3    46  GLN46       0.1566
     24  C          2.5610   16.8920   14.4780 C.2    46  GLN46       0.2260
     25  O          2.2300   17.9770   14.9500 O.2    46  GLN46      -0.2867
     26  CB         2.2790   15.1550   16.2680 C.3    46  GLN46       0.0367
     27  CG         1.5750   13.9090   16.7840 C.3    46  GLN46       0.0905
     28  CD         0.0770   14.0830   16.9180 C.2    46  GLN46       0.2608
     29  OE1       -0.3990   15.0610   17.4940 O.2    46  GLN46      -0.2717
     30  NE2       -0.6750   13.1290   16.3850 N.am   46  GLN46      -0.0878
     31  N         -5.5090    5.4460   11.9810 N.3    71  LYS71      -0.1231
     32  CA        -5.7680    6.6640   12.7550 C.3    71  LYS71       0.1693
     33  C         -7.1080    6.6180   13.5150 C.2    71  LYS71       0.2592
     34  O         -7.3050    7.3340   14.5070 O.2    71  LYS71      -0.2718
     35  CB        -5.7290    7.8650   11.8040 C.3    71  LYS71       0.0285
     36  CG        -5.4440    9.2180   12.4420 C.3    71  LYS71       0.0035
     37  CD        -5.1150   10.2460   11.3610 C.3    71  LYS71       0.0206
     38  CE        -4.9340   11.6390   11.9440 C.3    71  LYS71       0.1093
     39  NZ        -4.4730   12.6190   10.9210 N.3    71  LYS71      -0.1314
     40  N         -8.0190    5.7660   13.0520 N.am   72  GLU72      -0.1966
     41  CA        -9.3710    5.7050   13.5990 C.3    72  GLU72       0.1733
     42  C         -9.4440    4.9760   14.9390 C.2    72  GLU72       0.2617
     43  O        -10.1890    5.3950   15.8360 O.2    72  GLU72      -0.2715
     44  CB       -10.3360    5.0970   12.5740 C.3    72  GLU72       0.0429
     45  CG       -10.2960    5.8470   11.2370 C.3    72  GLU72       0.1163
     46  CD       -11.4200    5.4820   10.2770 C.2    72  GLU72       0.3649
     47  OE1      -12.4920    5.0090   10.7340 O.co2  72  GLU72      -0.2457
     48  OE2      -11.2250    5.6880    9.0520 O.co2  72  GLU72      -0.2457
     49  N         -8.6490    3.9110   15.0750 N.am   73  THR73      -0.1937
     50  CA        -8.6310    3.0830   16.2840 C.3    73  THR73       0.2028
     51  C         -7.2800    3.1160   17.0070 C.2    73  THR73       0.2642
     52  O         -7.1830    2.7040   18.1720 O.2    73  THR73      -0.2714
     53  CB        -8.9450    1.6040   15.9630 C.3    73  THR73       0.1808
     54  OG1       -7.9690    1.0920   15.0460 O.3    73  THR73      -0.2208
     55  CG2      -10.3470    1.4450   15.3610 C.3    73  THR73       0.0379
     56  N         -6.2450    3.5810   16.3040 N.am   74  TYR74      -0.1973
     57  CA        -4.8480    3.5310   16.7800 C.3    74  TYR74       0.1639
     58  C         -4.2920    2.1020   16.8670 C.2    74  TYR74       0.2290
     59  O         -3.2820    1.8490   17.5320 O.2    74  TYR74      -0.2864
     60  CB        -4.6710    4.2910   18.1120 C.3    74  TYR74       0.0560
     61  CG        -4.4290    5.7720   17.9580 C.ar   74  TYR74      -0.0198
     62  CD1       -5.0010    6.4900   16.9040 C.ar   74  TYR74      -0.0009
     63  CD2       -3.6560    6.4680   18.8840 C.ar   74  TYR74      -0.0009
     64  CE1       -4.7910    7.8380   16.7580 C.ar   74  TYR74       0.0417
     65  CE2       -3.4450    7.8310   18.7560 C.ar   74  TYR74       0.0417
     66  CZ        -4.0180    8.5090   17.6760 C.ar   74  TYR74       0.1957
     67  OH        -3.8270    9.8580   17.5110 O.3    74  TYR74      -0.2866
     68  N        -13.7030    2.8970   23.4850 N.3   151  PHE151     -0.1241
     69  CA       -13.1400    2.5290   22.1810 C.3   151  PHE151      0.1605
     70  C        -12.5530    1.1160   22.2170 C.2   151  PHE151      0.2264
     71  O        -12.2160    0.6180   23.2900 O.2   151  PHE151     -0.2867
     72  CB       -12.0710    3.5510   21.7620 C.3   151  PHE151      0.0534
     73  CG       -12.5630    4.9660   21.7590 C.ar  151  PHE151     -0.0203
     74  CD1      -13.3440    5.4440   20.7120 C.ar  151  PHE151     -0.0042
     75  CD2      -12.2690    5.8190   22.8170 C.ar  151  PHE151     -0.0042
     76  CE1      -13.8210    6.7640   20.7210 C.ar  151  PHE151     -0.0003
     77  CE2      -12.7310    7.1300   22.8350 C.ar  151  PHE151     -0.0003
     78  CZ       -13.5110    7.6090   21.7780 C.ar  151  PHE151     -0.0000
     79  N         -1.0520    9.1020   35.4790 N.3   168  ASP168     -0.1225
     80  CA        -1.1910    8.6210   34.0960 C.3   168  ASP168      0.1805
     81  C         -0.1660    9.3430   33.2330 C.2   168  ASP168      0.2598
     82  O          0.3620   10.3870   33.6250 O.2   168  ASP168     -0.2718
     83  CB        -2.6050    8.9540   33.5840 C.3   168  ASP168      0.1424
     84  CG        -3.0050    8.2110   32.2810 C.2   168  ASP168      0.3668
     85  OD1       -2.2820    7.3250   31.7690 O.co2 168  ASP168     -0.2456
     86  OD2       -4.1080    8.5050   31.7910 O.co2 168  ASP168     -0.2456
     87  N          0.1060    8.7860   32.0530 N.am  169  ALA169     -0.1966
     88  CA         0.7820    9.5200   30.9840 C.3   169  ALA169      0.1728
     89  C         -0.2030   10.5450   30.4000 C.2   169  ALA169      0.2616
     90  O         -1.4020   10.4940   30.6930 O.2   169  ALA169     -0.2715
     91  CB         1.3020    8.5590   29.9010 C.3   169  ALA169      0.0334
     92  N          0.3000   11.4770   29.5920 N.am  170  CYS170     -0.1954
     93  CA        -0.5480   12.5380   29.0290 C.3   170  CYS170      0.1843
     94  C         -0.0040   13.0490   27.6920 C.2   170  CYS170      0.2625
     95  O          1.0270   12.5580   27.1910 O.2   170  CYS170     -0.2714
     96  CB        -0.7170   13.6860   30.0410 C.3   170  CYS170      0.0997
     97  SG        -2.1920   14.7550   29.8330 S.3   170  CYS170     -0.0797
     98  N         -0.7070   14.0220   27.1120 N.am  171  GLN171     -0.1963
     99  CA        -0.2640   14.6820   25.8890 C.3   171  GLN171      0.1733
    100  C          1.2120   15.0800   25.9960 C.2   171  GLN171      0.2616
    101  O          1.6220   15.6630   27.0050 O.2   171  GLN171     -0.2715
    102  CB        -1.1460   15.9140   25.6230 C.3   171  GLN171      0.0408
    103  CG        -0.6070   16.8590   24.5580 C.3   171  GLN171      0.0908
    104  CD        -1.7060   17.5740   23.7770 C.2   171  GLN171      0.2608
    105  OE1       -1.6080   18.7680   23.5070 O.2   171  GLN171     -0.2717
    106  NE2       -2.7550   16.8410   23.4110 N.am  171  GLN171     -0.0878
    107  N          2.0090   14.7450   24.9770 N.am  172  GLY172     -0.1955
    108  CA         3.4440   15.0430   24.9810 C.3   172  GLY172      0.1869
    109  C          4.3140   13.8830   25.4390 C.2   172  GLY172      0.2309
    110  O          5.5240   13.8700   25.1860 O.2   172  GLY172     -0.2863
    111  N          3.2370   10.7550   24.5420 N.3   174  SER174     -0.1217
    112  CA         2.8940    9.6710   23.6210 C.3   174  SER174      0.1889
    113  C          4.0580    9.3420   22.6710 C.2   174  SER174      0.2288
    114  O          4.8460   10.2240   22.3090 O.2   174  SER174     -0.2866
    115  CB         1.5600    9.9280   22.9000 C.3   174  SER174      0.2089
    116  OG         1.6490   10.9850   21.9620 O.3   174  SER174     -0.2183
    117  N          3.6360    4.4620   24.7210 N.3   192  VAL192     -0.1231
    118  CA         2.4780    5.3050   25.1170 C.3   192  VAL192      0.1692
    119  C          1.6250    5.5900   23.8560 C.2   192  VAL192      0.2593
    120  O          2.1250    6.1640   22.8850 O.2   192  VAL192     -0.2718
    121  CB         2.9310    6.6430   25.7370 C.3   192  VAL192      0.0266
    122  CG1        1.7140    7.4870   26.1310 C.3   192  VAL192      0.0020
    123  CG2        3.8230    6.4100   26.9710 C.3   192  VAL192      0.0020
    124  N          0.3630    5.1570   23.8600 N.am  193  SER193     -0.1938
    125  CA        -0.4510    5.2070   22.6300 C.3   193  SER193      0.2055
    126  C         -1.6280    6.1820   22.7120 C.2   193  SER193      0.2643
    127  O         -1.6620    7.1890   21.9870 O.2   193  SER193     -0.2714
    128  CB        -0.9320    3.8000   22.2390 C.3   193  SER193      0.2130
    129  OG        -1.5850    3.7910   20.9700 O.3   193  SER193     -0.2179
    130  N         -2.5870    5.8960   23.5860 N.am  194  TRP194     -0.1959
    131  CA        -3.7840    6.7340   23.7030 C.3   194  TRP194      0.1771
    132  C         -4.4480    6.6680   25.0660 C.2   194  TRP194      0.2620
    133  O         -4.1160    5.8250   25.8870 O.2   194  TRP194     -0.2715
    134  CB        -4.7890    6.4500   22.5670 C.3   194  TRP194      0.0590
    135  CG        -5.3290    5.0560   22.4740 C.ar  194  TRP194      0.0006
    136  CD1       -4.7440    3.9880   21.8650 C.ar  194  TRP194      0.0946
    137  CD2       -6.5940    4.6020   22.9550 C.ar  194  TRP194      0.0152
    138  NE1       -5.5560    2.8830   21.9500 N.ar  194  TRP194     -0.2442
    139  CE2       -6.7030    3.2290   22.6160 C.ar  194  TRP194      0.0810
    140  CE3       -7.6510    5.2200   23.6370 C.ar  194  TRP194      0.0012
    141  CZ2       -7.8350    2.4590   22.9400 C.ar  194  TRP194      0.0191
    142  CZ3       -8.7640    4.4580   23.9740 C.ar  194  TRP194      0.0001
    143  CH2       -8.8530    3.0920   23.6200 C.ar  194  TRP194      0.0015
    144  N         -5.3780    7.5870   25.2950 N.am  195  GLY195     -0.1954
    145  CA        -6.2260    7.5570   26.4780 C.3   195  GLY195      0.1869
    146  C         -7.3970    8.5030   26.3040 C.2   195  GLY195      0.2309
    147  O         -7.3570    9.4120   25.4570 O.2   195  GLY195     -0.2863
    148  N         -8.8320   11.3810   27.7250 N.3   197  GLY197     -0.1210
    149  CA        -8.2400   12.3820   28.6300 C.3   197  GLY197      0.1956
    150  C         -6.9470   11.8800   29.2590 C.2   197  GLY197      0.2612
    151  O         -6.2890   10.9880   28.7060 O.2   197  GLY197     -0.2717
    152  N         -6.5850   12.4410   30.4120 N.am  198  CYS198     -0.1970
    153  CA        -5.4370   11.9680   31.2000 C.3   198  CYS198      0.1712
    154  C         -5.8080   11.8150   32.6690 C.2   198  CYS198      0.2296
    155  O         -6.3200   12.7580   33.2890 O.2   198  CYS198     -0.2864
    156  CB        -4.2540   12.9370   31.1070 C.3   198  CYS198      0.0983
    157  SG        -3.7670   13.4470   29.4580 S.3   198  CYS198     -0.0798
    158  N         -4.4830    4.1930   30.9670 N.3   205  GLY205     -0.1210
    159  CA        -3.6050    4.4760   29.8380 C.3   205  GLY205      0.1956
    160  C         -3.5780    3.2840   28.9030 C.2   205  GLY205      0.2612
    161  O         -3.5540    2.1360   29.3480 O.2   205  GLY205     -0.2717
    162  N         -3.6030    3.5540   27.5970 N.am  206  ILE206     -0.1965
    163  CA        -3.5430    2.4930   26.6000 C.3   206  ILE206      0.1727
    164  C         -2.1940    2.5210   25.8880 C.2   206  ILE206      0.2616
    165  O         -1.6900    3.5990   25.5080 O.2   206  ILE206     -0.2715
    166  CB        -4.7100    2.5520   25.5580 C.3   206  ILE206      0.0290
    167  CG1       -6.0520    2.9410   26.2200 C.3   206  ILE206      0.0022
    168  CG2       -4.7840    1.2120   24.7570 C.3   206  ILE206      0.0023
    169  CD1       -6.6430    1.9190   27.1840 C.3   206  ILE206      0.0001
    170  N         -1.6090    1.3350   25.7470 N.am  207  TYR207     -0.1974
    171  CA        -0.2330    1.1580   25.2690 C.3   207  TYR207      0.1639
    172  C         -0.1570    0.1460   24.1140 C.2   207  TYR207      0.2290
    173  O         -0.8650   -0.8690   24.1060 O.2   207  TYR207     -0.2864
    174  CB         0.6870    0.7030   26.4210 C.3   207  TYR207      0.0560
    175  CG         0.8430    1.7030   27.5500 C.ar  207  TYR207     -0.0198
    176  CD1        2.0010    2.5050   27.6630 C.ar  207  TYR207     -0.0009
    177  CD2       -0.1880    1.8780   28.4960 C.ar  207  TYR207     -0.0009
    178  CE1        2.1340    3.4350   28.7100 C.ar  207  TYR207      0.0417
    179  CE2       -0.0740    2.8160   29.5340 C.ar  207  TYR207      0.0417
    180  CZ         1.0790    3.5840   29.6350 C.ar  207  TYR207      0.1957
    181  OH         1.1940    4.5040   30.6650 O.3   207  TYR207     -0.2866
@<TRIPOS>BOND
     1    48    46   ar
     2    46    47   ar
     3    46    45    1
     4    39    38    1
     5    45    44    1
     6    37    38    1
     7    37    36    1
     8    35    36    1
     9    35    32    1
    10    31    32    1
    11    44    41    1
    12    32    33    1
    13    40    33   am
    14    40    41    1
    15    33    34    2
    16    41    42    1
    17    22    23    1
    18    24    23    1
    19    24    25    2
    20    23    26    1
    21    42    49   am
    22    42    43    2
    23    54    53    1
    24    49    50    1
    25    55    53    1
    26    15    14    2
    27    12    13    1
    28    13    14    1
    29    13    16    1
    30    53    50    1
    31    26    27    1
    32    50    51    1
    33    56    57    1
    34    56    51   am
    35    30    28   am
    36    11     9   ar
    37    11    10   ar
    38    16    17    1
    39    64    62   ar
    40    64    66   ar
    41    57    58    1
    42    57    60    1
    43    27    28    1
    44    58    59    2
    45    62    61   ar
    46    28    29    2
    47     9     7   ar
    48    51    52    2
    49    10     8   ar
    50    67    66    1
    51    66    65   ar
    52    17    19   ar
    53    17    18   ar
    54    61    60    1
    55    61    63   ar
    56     7     6   ar
    57     8     6   ar
    58     6     5    1
    59    19    21   ar
    60    65    63   ar
    61    18    20   ar
    62     5     2    1
    63    21    20   ar
    64    74    76   ar
    65    74    73   ar
    66    76    78   ar
    67   129   128    1
    68     2     3    1
    69     2     1    1
    70     3     4    2
    71    73    72    1
    72    73    75   ar
    73    72    69    1
    74    78    77   ar
    75   136   138   ar
    76   136   135   ar
    77   138   139   ar
    78   116   115    1
    79   127   126    2
    80    69    70    1
    81    69    68    1
    82    70    71    2
    83   128   125    1
    84   114   113    2
    85   135   134    1
    86   135   137   ar
    87   134   131    1
    88   139   141   ar
    89   139   137   ar
    90   125   126    1
    91   125   124    1
    92   113   112    1
    93   126   130   am
    94    75    77   ar
    95   120   119    2
    96   115   112    1
    97   141   143   ar
    98   137   140   ar
    99   106   104   am
   100   105   104    2
   101   130   131    1
   102   143   142   ar
   103   112   111    1
   104   140   142   ar
   105   131   132    1
   106   104   103    1
   107   119   124   am
   108   119   118    1
   109   173   172    2
   110   172   171    1
   111   103   102    1
   112   117   118    1
   113   168   166    1
   114   107   108    1
   115   107   100   am
   116   108   109    1
   117   132   144   am
   118   132   133    2
   119   118   121    1
   120   110   109    2
   121   171   170    1
   122   171   174    1
   123   144   145    1
   124   147   146    2
   125   165   164    2
   126   166   167    1
   127   166   163    1
   128   102    99    1
   129   121   122    1
   130   121   123    1
   131   170   164   am
   132   164   163    1
   133    99   100    1
   134    99    98    1
   135   100   101    2
   136   167   169    1
   137   146   145    1
   138   174   175    1
   139   163   162    1
   140    98    94   am
   141    95    94    2
   142   175   176   ar
   143   175   177   ar
   144   162   160   am
   145   176   178   ar
   146    94    93    1
   147   148   149    1
   148   177   179   ar
   149   149   150    1
   150   151   150    2
   151   178   180   ar
   152   160   161    2
   153   160   159    1
   154    93    92    1
   155    93    96    1
   156   150   152   am
   157   157    97    1
   158   157   156    1
   159   179   180   ar
   160    92    89   am
   161   180   181    1
   162    97    96    1
   163   159   158    1
   164    91    88    1
   165    89    90    2
   166    89    88    1
   167   152   153    1
   168    88    87    1
   169   156   153    1
   170   153   154    1
   171    85    84   ar
   172    86    84   ar
   173    87    81   am
   174    84    83    1
   175   154   155    2
   176    81    82    2
   177    81    80    1
   178    83    80    1
   179    80    79    1
