@<TRIPOS>MOLECULE
tmp/2bosC00.pdb
 89 89 0 0 0
SMALL
GASTEIGER

@<TRIPOS>ATOM
      1  N         11.4320    4.6840   46.2880 N.3    29  TRP29      -0.1227
      2  CA        12.3120    5.7600   45.8390 C.3    29  TRP29       0.1737
      3  C         13.6250    5.7130   46.6220 C.2    29  TRP29       0.2596
      4  O         13.6720    5.1930   47.7280 O.2    29  TRP29      -0.2718
      5  CB        11.6190    7.1350   46.0280 C.3    29  TRP29       0.0564
      6  CG        11.2840    7.4240   47.4560 C.ar   29  TRP29       0.0003
      7  CD1       10.1640    7.0180   48.1470 C.ar   29  TRP29       0.0946
      8  CD2       12.1100    8.1110   48.4030 C.ar   29  TRP29       0.0152
      9  NE1       10.2560    7.3950   49.4580 N.ar   29  TRP29      -0.2442
     10  CE2       11.4380    8.0720   49.6470 C.ar   29  TRP29       0.0810
     11  CE3       13.3580    8.7510   48.3230 C.ar   29  TRP29       0.0012
     12  CZ2       11.9710    8.6510   50.8050 C.ar   29  TRP29       0.0191
     13  CZ3       13.8920    9.3320   49.4900 C.ar   29  TRP29       0.0001
     14  CH2       13.1900    9.2760   50.7120 C.ar   29  TRP29       0.0015
     15  N         14.6780    6.2780   46.0570 N.am   30  THR30      -0.1939
     16  CA        15.9550    6.2860   46.7280 C.3    30  THR30       0.2028
     17  C         16.6280    7.6510   46.4980 C.2    30  THR30       0.2642
     18  O         16.4650    8.2600   45.4250 O.2    30  THR30      -0.2714
     19  CB        16.8900    5.1970   46.2030 C.3    30  THR30       0.1808
     20  OG1       18.1290    5.3180   46.9090 O.3    30  THR30      -0.2208
     21  CG2       17.1700    5.3560   44.6640 C.3    30  THR30       0.0379
     22  N         17.4020    8.1070   47.4750 N.am   31  ASN31      -0.1957
     23  CA        18.1180    9.3840   47.3310 C.3    31  ASN31       0.1819
     24  C         19.5800    9.1160   46.9850 C.2    31  ASN31       0.2621
     25  O         20.3950   10.0180   46.9790 O.2    31  ASN31      -0.2715
     26  CB        18.0130   10.1830   48.6390 C.3    31  ASN31       0.1195
     27  CG        18.7030    9.4810   49.8080 C.2    31  ASN31       0.2630
     28  OD1       19.4300    8.4980   49.6340 O.2    31  ASN31      -0.2716
     29  ND2       18.4910    9.9920   51.0010 N.am   31  ASN31      -0.0877
     30  N         19.9380    7.8650   46.6780 N.am   32  ARG32      -0.1977
     31  CA        21.3320    7.5750   46.3810 C.3    32  ARG32       0.1597
     32  C         21.5810    7.7660   44.8910 C.2    32  ARG32       0.2287
     33  O         21.1500    6.9690   44.0550 O.2    32  ARG32      -0.2864
     34  CB        21.7050    6.1350   46.8280 C.3    32  ARG32       0.0334
     35  CG        21.3670    5.8030   48.2910 C.3    32  ARG32       0.0492
     36  CD        22.1250    6.7320   49.2800 C.3    32  ARG32       0.2205
     37  NE        21.6170    6.5200   50.6370 N.pl3  32  ARG32      -0.0865
     38  CZ        22.1660    5.6770   51.5050 C.cat  32  ARG32       0.5346
     39  NH1       23.2460    4.9710   51.1560 N.pl3  32  ARG32       0.1354
     40  NH2       21.6230    5.5280   52.7090 N.pl3  32  ARG32       0.1354
     41  N         15.4760   -3.8180   48.8830 N.3    52  ILE52      -0.1231
     42  CA        15.6660   -4.1720   50.2830 C.3    52  ILE52       0.1692
     43  C         15.5090   -2.9110   51.1380 C.2    52  ILE52       0.2593
     44  O         16.1660   -1.8810   50.8930 O.2    52  ILE52      -0.2718
     45  CB        17.0580   -4.8190   50.4530 C.3    52  ILE52       0.0266
     46  CG1       17.0990   -6.0950   49.5860 C.3    52  ILE52       0.0019
     47  CG2       17.3820   -5.1540   51.9280 C.3    52  ILE52       0.0020
     48  CD1       18.5070   -6.5240   49.2460 C.3    52  ILE52       0.0001
     49  N         14.6190   -3.0010   52.1270 N.am   53  SER53      -0.1938
     50  CA        14.3160   -1.8940   53.0180 C.3    53  SER53       0.2055
     51  C         13.5190   -2.4250   54.2340 C.2    53  SER53       0.2643
     52  O         13.0110   -3.5410   54.1810 O.2    53  SER53      -0.2714
     53  CB        13.4590   -0.8720   52.2800 C.3    53  SER53       0.2130
     54  OG        13.2750    0.2860   53.0980 O.3    53  SER53      -0.2179
     55  N         13.5180   -1.6920   55.3470 N.am   54  ASN54      -0.1957
     56  CA        12.7260   -2.1360   56.5070 C.3    54  ASN54       0.1819
     57  C         11.2910   -1.7120   56.2950 C.2    54  ASN54       0.2621
     58  O         10.4220   -2.1460   57.0030 O.2    54  ASN54      -0.2715
     59  CB        13.2260   -1.5150   57.8270 C.3    54  ASN54       0.1195
     60  CG        14.5900   -2.0350   58.2090 C.2    54  ASN54       0.2630
     61  OD1       14.9230   -3.1900   57.9120 O.2    54  ASN54      -0.2716
     62  ND2       15.4100   -1.1820   58.8340 N.am   54  ASN54      -0.0877
     63  N         11.0550   -0.8000   55.3660 N.am   55  THR55      -0.1951
     64  CA         9.7090   -0.3160   55.0900 C.3    55  THR55       0.1897
     65  C          9.4070   -0.7340   53.6670 C.2    55  THR55       0.2313
     66  O         10.0650   -0.2580   52.7230 O.2    55  THR55      -0.2863
     67  CB         9.6440    1.2470   55.2320 C.3    55  THR55       0.1794
     68  OG1       10.7740    1.8370   54.5710 O.3    55  THR55      -0.2208
     69  CG2        9.6550    1.6370   56.6900 C.3    55  THR55       0.0378
     70  N         11.0590    4.5000   50.9830 N.3    61  GLY61      -0.1210
     71  CA        12.4010    4.7420   50.4800 C.3    61  GLY61       0.1956
     72  C         13.2630    3.4920   50.6280 C.2    61  GLY61       0.2612
     73  O         12.9070    2.5430   51.3750 O.2    61  GLY61      -0.2717
     74  N         14.3690    3.4350   49.9030 N.am   62  PHE62      -0.1962
     75  CA        15.2870    2.3010   50.0420 C.3    62  PHE62       0.1771
     76  C         16.6760    2.8010   49.6500 C.2    62  PHE62       0.2619
     77  O         16.8090    3.8370   48.9590 O.2    62  PHE62      -0.2715
     78  CB        14.9070    1.1090   49.1190 C.3    62  PHE62       0.0574
     79  CG        15.1010    1.3850   47.6470 C.ar   62  PHE62      -0.0200
     80  CD1       14.1850    2.1620   46.9440 C.ar   62  PHE62      -0.0042
     81  CD2       16.2250    0.8690   46.9580 C.ar   62  PHE62      -0.0042
     82  CE1       14.3800    2.4350   45.5430 C.ar   62  PHE62      -0.0003
     83  CE2       16.4210    1.1390   45.5570 C.ar   62  PHE62      -0.0003
     84  CZ        15.4980    1.9160   44.8690 C.ar   62  PHE62      -0.0000
     85  N         17.6980    2.0620   50.0550 N.am   63  ALA63      -0.1977
     86  CA        19.0480    2.4110   49.6710 C.3    63  ALA63       0.1597
     87  C         19.7960    1.1090   49.4440 C.2    63  ALA63       0.2287
     88  O         21.0060    1.0920   49.3990 O.2    63  ALA63      -0.2864
     89  CB        19.7280    3.2010   50.7770 C.3    63  ALA63       0.0319
@<TRIPOS>BOND
     1    33    32    2
     2    21    19    1
     3    84    82   ar
     4    84    83   ar
     5    32    31    1
     6    18    17    2
     7    82    80   ar
     8    83    81   ar
     9     2     5    1
    10     2     1    1
    11     2     3    1
    12     5     6    1
    13    15     3   am
    14    15    16    1
    15    19    16    1
    16    19    20    1
    17    31    30    1
    18    31    34    1
    19    17    16    1
    20    17    22   am
    21     3     4    2
    22    30    24   am
    23    34    35    1
    24    80    79   ar
    25    81    79   ar
    26    25    24    2
    27    24    23    1
    28    23    22    1
    29    23    26    1
    30     6     7   ar
    31     6     8   ar
    32    79    78    1
    33     7     9   ar
    34    35    36    1
    35    11     8   ar
    36    11    13   ar
    37     8    10   ar
    38    26    27    1
    39    41    42    1
    40    77    76    2
    41    78    75    1
    42    48    46    1
    43    36    37    1
    44    88    87    2
    45    87    86    1
    46     9    10   ar
    47    13    14   ar
    48    46    45    1
    49    28    27    2
    50    10    12   ar
    51    76    75    1
    52    76    85   am
    53    86    85    1
    54    86    89    1
    55    27    29   am
    56    74    75    1
    57    74    72   am
    58    42    45    1
    59    42    43    1
    60    45    47    1
    61    71    72    1
    62    71    70    1
    63    72    73    2
    64    37    38    2
    65    14    12   ar
    66    44    43    2
    67    43    49   am
    68    39    38    1
    69    38    40    1
    70    49    50    1
    71    53    50    1
    72    53    54    1
    73    66    65    2
    74    50    51    1
    75    65    64    1
    76    52    51    2
    77    51    55   am
    78    68    67    1
    79    64    67    1
    80    64    63    1
    81    67    69    1
    82    55    56    1
    83    63    57   am
    84    57    56    1
    85    57    58    2
    86    56    59    1
    87    59    60    1
    88    61    60    2
    89    60    62   am
