@<TRIPOS>MOLECULE
tmp/2bowA00.pdb
 130 125 0 0 0
SMALL
GASTEIGER

@<TRIPOS>ATOM
      1  N        -25.0130   67.4230   30.6620 N.3    20  GLU20      -0.1245
      2  CA       -26.3300   68.0530   30.6430 C.3    20  GLU20       0.1567
      3  C        -27.1120   67.7860   29.3800 C.2    20  GLU20       0.2260
      4  O        -28.2080   68.3170   29.1920 O.2    20  GLU20      -0.2867
      5  CB       -26.1990   69.5610   30.8400 C.3    20  GLU20       0.0388
      6  CG       -24.9580   69.9880   31.6160 C.3    20  GLU20       0.1160
      7  CD       -24.2190   71.1630   30.9580 C.2    20  GLU20       0.3649
      8  OE1      -24.8520   71.8760   30.1370 O.co2  20  GLU20      -0.2457
      9  OE2      -23.0170   71.3700   31.2720 O.co2  20  GLU20      -0.2457
     10  N        -25.7630   68.6210   26.4230 N.3    22  ILE22      -0.1245
     11  CA       -25.2710   69.4820   25.3900 C.3    22  ILE22       0.1561
     12  C        -24.6080   68.5640   24.3670 C.2    22  ILE22       0.2260
     13  O        -24.0650   67.5300   24.7210 O.2    22  ILE22      -0.2867
     14  CB       -24.3240   70.5370   25.9240 C.3    22  ILE22       0.0252
     15  CG1      -24.3600   71.7610   25.0030 C.3    22  ILE22       0.0019
     16  CG2      -22.9230   69.9730   26.1170 C.3    22  ILE22       0.0019
     17  CD1      -25.7750   72.3830   24.8410 C.3    22  ILE22       0.0001
     18  N        -22.1980   72.9330   20.6470 N.3    27  VAL27      -0.1245
     19  CA       -20.9490   73.7030   20.8400 C.3    27  VAL27       0.1561
     20  C        -20.4180   74.4380   19.6070 C.2    27  VAL27       0.2260
     21  O        -19.5600   75.3090   19.7330 O.2    27  VAL27      -0.2867
     22  CB       -19.7530   72.8570   21.4800 C.3    27  VAL27       0.0252
     23  CG1      -18.6230   73.7700   21.9290 C.3    27  VAL27       0.0019
     24  CG2      -20.2130   72.0290   22.6640 C.3    27  VAL27       0.0019
     25  N        -21.8240   83.0750   22.4720 N.3    32  TYR32      -0.1241
     26  CA       -21.2850   83.3000   23.8340 C.3    32  TYR32       0.1605
     27  C        -19.9750   82.5210   24.0620 C.2    32  TYR32       0.2264
     28  O        -19.0140   83.0480   24.6220 O.2    32  TYR32      -0.2867
     29  CB       -22.3170   82.8920   24.8880 C.3    32  TYR32       0.0534
     30  CG       -22.9050   81.5070   24.6670 C.ar   32  TYR32      -0.0201
     31  CD1      -22.1010   80.4060   24.9010 C.ar   32  TYR32      -0.0009
     32  CD2      -24.2410   81.3490   24.2490 C.ar   32  TYR32      -0.0009
     33  CE1      -22.5900   79.1500   24.7570 C.ar   32  TYR32       0.0417
     34  CE2      -24.7360   80.0710   24.0940 C.ar   32  TYR32       0.0417
     35  CZ       -23.8910   79.0090   24.3610 C.ar   32  TYR32       0.1957
     36  OH       -24.3130   77.7160   24.2530 O.3    32  TYR32      -0.2866
     37  N         -6.8690   72.7970   27.8050 N.3    33  SER33      -0.1202
     38  CA        -7.1640   71.4370   27.3470 C.3    33  SER33       0.2020
     39  C         -8.3100   70.8830   28.1530 C.2    33  SER33       0.2619
     40  O         -8.4530   71.1640   29.3350 O.2    33  SER33      -0.2717
     41  CB        -5.9600   70.5390   27.5490 C.3    33  SER33       0.2103
     42  OG        -5.6290   70.4900   28.9270 O.3    33  SER33      -0.2182
     43  N         -9.1300   70.0860   27.5030 N.am   34  TYR34      -0.1961
     44  CA       -10.2760   69.4940   28.1530 C.3    34  TYR34       0.1771
     45  C        -10.6490   68.4380   27.1830 C.2    34  TYR34       0.2620
     46  O         -9.8760   68.1200   26.2850 O.2    34  TYR34      -0.2715
     47  CB       -11.4010   70.4990   28.1710 C.3    34  TYR34       0.0574
     48  CG       -11.5320   71.2080   26.8460 C.ar   34  TYR34      -0.0198
     49  CD1      -10.6380   72.2210   26.4690 C.ar   34  TYR34      -0.0009
     50  CD2      -12.5300   70.8610   25.9610 C.ar   34  TYR34      -0.0009
     51  CE1      -10.7640   72.8740   25.2450 C.ar   34  TYR34       0.0417
     52  CE2      -12.6670   71.5040   24.7410 C.ar   34  TYR34       0.0417
     53  CZ       -11.7880   72.5050   24.3850 C.ar   34  TYR34       0.1957
     54  OH       -11.9600   73.1090   23.1610 O.3    34  TYR34      -0.2866
     55  N        -11.8410   67.9010   27.3330 N.am   35  GLY35      -0.1940
     56  CA       -12.2660   66.8820   26.4260 C.3    35  GLY35       0.2014
     57  C        -13.6740   66.6510   26.7820 C.2    35  GLY35       0.2638
     58  O        -14.3240   67.4860   27.3920 O.2    35  GLY35      -0.2714
     59  N        -14.1490   65.4930   26.4090 N.am   36  ALA36      -0.1977
     60  CA       -15.5030   65.1250   26.7100 C.3    36  ALA36       0.1597
     61  C        -15.5650   63.7030   26.1790 C.2    36  ALA36       0.2287
     62  O        -14.6210   63.3010   25.4950 O.2    36  ALA36      -0.2864
     63  CB       -16.4170   66.0220   26.0000 C.3    36  ALA36       0.0319
     64  N        -22.8710   64.5560   23.8760 N.3    51  TYR51      -0.1241
     65  CA       -21.8570   64.3260   24.9130 C.3    51  TYR51       0.1605
     66  C        -22.4010   63.7130   26.2180 C.2    51  TYR51       0.2264
     67  O        -23.5770   63.9000   26.5700 O.2    51  TYR51      -0.2867
     68  CB       -21.1270   65.6290   25.2360 C.3    51  TYR51       0.0534
     69  CG       -20.2560   66.1680   24.1290 C.ar   51  TYR51      -0.0201
     70  CD1      -19.7120   65.3290   23.1600 C.ar   51  TYR51      -0.0009
     71  CD2      -19.9710   67.5320   24.0590 C.ar   51  TYR51      -0.0009
     72  CE1      -18.9060   65.8440   22.1520 C.ar   51  TYR51       0.0417
     73  CE2      -19.1740   68.0520   23.0610 C.ar   51  TYR51       0.0417
     74  CZ       -18.6410   67.2120   22.1110 C.ar   51  TYR51       0.1957
     75  OH       -17.8520   67.7590   21.1210 O.3    51  TYR51      -0.2866
     76  N        -17.9320   65.7540   30.5280 N.3    54  ILE54      -0.1231
     77  CA       -17.0350   66.7360   30.0110 C.3    54  ILE54       0.1692
     78  C        -15.9000   66.7610   30.9790 C.2    54  ILE54       0.2592
     79  O        -16.1230   66.7220   32.1920 O.2    54  ILE54      -0.2718
     80  CB       -17.7280   68.0940   30.0020 C.3    54  ILE54       0.0266
     81  CG1      -19.0040   67.9970   29.1780 C.3    54  ILE54       0.0019
     82  CG2      -16.8360   69.1020   29.3680 C.3    54  ILE54       0.0020
     83  CD1      -18.8080   67.1720   27.9480 C.3    54  ILE54       0.0001
     84  N        -14.6770   66.8220   30.4690 N.am   55  PHE55      -0.1962
     85  CA       -13.5540   66.8280   31.3770 C.3    55  PHE55       0.1771
     86  C        -12.3670   67.6790   31.0770 C.2    55  PHE55       0.2620
     87  O        -12.1830   68.2240   29.9800 O.2    55  PHE55      -0.2715
     88  CB       -13.0450   65.4200   31.5940 C.3    55  PHE55       0.0574
     89  CG       -12.4830   64.7850   30.3530 C.ar   55  PHE55      -0.0200
     90  CD1      -11.1810   64.9990   29.9760 C.ar   55  PHE55      -0.0042
     91  CD2      -13.2650   63.9700   29.5730 C.ar   55  PHE55      -0.0042
     92  CE1      -10.6610   64.4000   28.8360 C.ar   55  PHE55      -0.0003
     93  CE2      -12.7550   63.3810   28.4450 C.ar   55  PHE55      -0.0003
     94  CZ       -11.4460   63.5980   28.0760 C.ar   55  PHE55      -0.0000
     95  N        -11.5540   67.7360   32.1230 N.am   56  THR56      -0.1951
     96  CA       -10.3070   68.4700   32.1850 C.3    56  THR56       0.1897
     97  C         -9.3630   67.5480   32.9750 C.2    56  THR56       0.2313
     98  O         -9.7940   66.8420   33.8920 O.2    56  THR56      -0.2863
     99  CB       -10.4780   69.7700   32.9270 C.3    56  THR56       0.1794
    100  OG1       -9.3780   69.9310   33.8230 O.3    56  THR56      -0.2208
    101  CG2      -11.7770   69.7450   33.7380 C.3    56  THR56       0.0378
    102  N        -12.7070   62.3260   23.4190 N.3   114  GLU114     -0.1245
    103  CA       -12.4560   63.5270   22.6440 C.3   114  GLU114      0.1567
    104  C        -11.5210   64.4090   23.4510 C.2   114  GLU114      0.2260
    105  O        -11.8470   64.8240   24.5750 O.2   114  GLU114     -0.2867
    106  CB       -13.7850   64.2750   22.4130 C.3   114  GLU114      0.0388
    107  CG       -13.8690   65.0720   21.0970 C.3   114  GLU114      0.1160
    108  CD       -15.1770   65.8550   20.9410 C.2   114  GLU114      0.3649
    109  OE1      -15.3800   66.8540   21.6630 O.co2 114  GLU114     -0.2457
    110  OE2      -15.9920   65.5000   20.0680 O.co2 114  GLU114     -0.2457
    111  N         -9.3320   67.9270   23.1600 N.3   116  ILE116     -0.1245
    112  CA        -8.9700   69.1250   22.4380 C.3   116  ILE116      0.1561
    113  C         -7.8720   69.8370   23.2040 C.2   116  ILE116      0.2260
    114  O         -7.8820   69.9140   24.4450 O.2   116  ILE116     -0.2867
    115  CB       -10.1090   70.0880   22.2720 C.3   116  ILE116      0.0252
    116  CG1      -11.3090   69.3780   21.6910 C.3   116  ILE116      0.0019
    117  CG2       -9.6670   71.2500   21.4270 C.3   116  ILE116      0.0019
    118  CD1      -12.2190   68.8860   22.7550 C.3   116  ILE116      0.0001
    119  N         -6.0770   74.8030   17.5680 N.3   121  TYR121     -0.1241
    120  CA        -6.6240   73.6590   18.3450 C.3   121  TYR121      0.1605
    121  C         -6.2940   72.2310   17.8310 C.2   121  TYR121      0.2264
    122  O         -6.6910   71.8760   16.7320 O.2   121  TYR121     -0.2867
    123  CB        -8.1640   73.7400   18.4480 C.3   121  TYR121      0.0534
    124  CG        -8.6820   74.9320   19.1880 C.ar  121  TYR121     -0.0201
    125  CD1       -8.1640   75.2750   20.4270 C.ar  121  TYR121     -0.0009
    126  CD2       -9.6900   75.7290   18.6510 C.ar  121  TYR121     -0.0009
    127  CE1       -8.6290   76.3970   21.1340 C.ar  121  TYR121      0.0417
    128  CE2      -10.1720   76.8600   19.3450 C.ar  121  TYR121      0.0417
    129  CZ        -9.6340   77.1910   20.5950 C.ar  121  TYR121      0.1957
    130  OH       -10.0900   78.3010   21.3140 O.3   121  TYR121     -0.2866
@<TRIPOS>BOND
     1   122   121    2
     2   119   120    1
     3   121   120    1
     4   120   123    1
     5   123   124    1
     6   126   124   ar
     7   126   128   ar
     8   124   125   ar
     9   128   129   ar
    10    20    21    2
    11    20    19    1
    12   110   108   ar
    13   125   127   ar
    14   129   127   ar
    15   129   130    1
    16    18    19    1
    17    19    22    1
    18   108   107    1
    19   108   109   ar
    20   107   106    1
    21    75    74    1
    22   117   115    1
    23    22    23    1
    24    22    24    1
    25   116   115    1
    26   116   118    1
    27    74    72   ar
    28    74    73   ar
    29    72    70   ar
    30   115   112    1
    31   106   103    1
    32   112   111    1
    33   112   113    1
    34    25    26    1
    35   103   102    1
    36   103   104    1
    37    73    71   ar
    38    70    69   ar
    39    54    53    1
    40   113   114    2
    41   104   105    2
    42    26    27    1
    43    26    29    1
    44    64    65    1
    45    71    69   ar
    46    27    28    2
    47    34    32   ar
    48    34    35   ar
    49    69    68    1
    50    32    30   ar
    51    36    35    1
    52    35    33   ar
    53    12    13    2
    54    12    11    1
    55    53    52   ar
    56    53    51   ar
    57    30    29    1
    58    30    31   ar
    59    52    50   ar
    60    33    31   ar
    61    17    15    1
    62    65    68    1
    63    65    66    1
    64    15    14    1
    65    51    49   ar
    66    11    14    1
    67    11    10    1
    68    62    61    2
    69    14    16    1
    70    50    48   ar
    71    63    60    1
    72    61    60    1
    73    66    67    2
    74    46    45    2
    75    59    60    1
    76    59    57   am
    77    56    57    1
    78    56    55    1
    79    49    48   ar
    80    57    58    2
    81    48    47    1
    82    45    55   am
    83    45    44    1
    84    38    41    1
    85    38    37    1
    86    38    39    1
    87    43    44    1
    88    43    39   am
    89    41    42    1
    90    83    81    1
    91    94    93   ar
    92    94    92   ar
    93    44    47    1
    94    39    40    2
    95    93    91   ar
    96    92    90   ar
    97    81    80    1
    98     4     3    2
    99    82    80    1
   100     3     2    1
   101    91    89   ar
   102    90    89   ar
   103    87    86    2
   104    80    77    1
   105    77    76    1
   106    77    78    1
   107     8     7   ar
   108    89    88    1
   109    84    78   am
   110    84    85    1
   111     2     1    1
   112     2     5    1
   113     5     6    1
   114     7     9   ar
   115     7     6    1
   116    78    79    2
   117    86    85    1
   118    86    95   am
   119    85    88    1
   120    95    96    1
   121    96    99    1
   122    96    97    1
   123    99   101    1
   124    99   100    1
   125    97    98    2
