@<TRIPOS>MOLECULE
tmp/2boyD01.pdb
 109 104 0 0 0
SMALL
GASTEIGER

@<TRIPOS>ATOM
      1  N         53.2020   47.5010   26.3750 N.3     4  ARG4       -0.1231
      2  CA        52.3680   46.5210   27.0790 C.3     4  ARG4        0.1694
      3  C         50.8840   46.6470   26.6100 C.2     4  ARG4        0.2592
      4  O         50.2260   45.6610   26.2810 O.2     4  ARG4       -0.2718
      5  CB        52.5150   46.7180   28.6120 C.3     4  ARG4        0.0321
      6  CG        51.5250   45.8290   29.4740 C.3     4  ARG4        0.0489
      7  CD        51.6110   45.9640   31.0070 C.3     4  ARG4        0.2205
      8  NE        50.5610   45.1520   31.6490 N.pl3   4  ARG4       -0.0865
      9  CZ        50.4830   43.8130   31.6490 C.cat   4  ARG4        0.5346
     10  NH1       51.4450   43.0380   31.1250 N.pl3   4  ARG4        0.1354
     11  NH2       49.4370   43.2190   32.2480 N.pl3   4  ARG4        0.1354
     12  N         50.3790   47.8590   26.5620 N.am    5  THR5       -0.1953
     13  CA        48.9810   48.0930   26.1150 C.3     5  THR5        0.1897
     14  C         48.8070   47.6120   24.6920 C.2     5  THR5        0.2313
     15  O         47.9030   46.8330   24.3900 O.2     5  THR5       -0.2863
     16  CB        48.6570   49.5560   26.2250 C.3     5  THR5        0.1794
     17  OG1       48.6140   49.8930   27.5950 O.3     5  THR5       -0.2208
     18  CG2       47.1960   49.8570   25.7370 C.3     5  THR5        0.0378
     19  N         48.8110   43.6680   24.5940 N.3     8  ILE8       -0.1231
     20  CA        47.6100   43.0320   25.0990 C.3     8  ILE8        0.1692
     21  C         46.4440   43.2960   24.1390 C.2     8  ILE8        0.2591
     22  O         45.7950   42.3800   23.7040 O.2     8  ILE8       -0.2718
     23  CB        47.2430   43.5860   26.4690 C.3     8  ILE8        0.0266
     24  CG1       48.3400   43.2940   27.5010 C.3     8  ILE8        0.0019
     25  CG2       45.8660   43.0070   26.9140 C.3     8  ILE8        0.0020
     26  CD1       48.1510   44.1140   28.7890 C.3     8  ILE8        0.0001
     27  N         46.1950   44.5600   23.8240 N.am    9  VAL9       -0.1980
     28  CA        45.0360   44.9000   22.9610 C.3     9  VAL9        0.1595
     29  C         45.2300   44.3120   21.5610 C.2     9  VAL9        0.2287
     30  O         44.3000   43.7350   20.9640 O.2     9  VAL9       -0.2864
     31  CB        44.7960   46.4150   22.9190 C.3     9  VAL9        0.0276
     32  CG1       43.6150   46.7560   21.9770 C.3     9  VAL9        0.0022
     33  CG2       44.5210   46.9320   24.3210 C.3     9  VAL9        0.0022
     34  N         44.4110   40.7230   21.6310 N.3    12  MET12      -0.1245
     35  CA        42.9640   40.4980   21.7770 C.3    12  MET12       0.1570
     36  C         42.2650   40.7180   20.4480 C.2    12  MET12       0.2261
     37  O         41.4770   39.8590   20.0050 O.2    12  MET12      -0.2867
     38  CB        42.3730   41.4000   22.8610 C.3    12  MET12       0.0387
     39  CG        42.7100   40.9070   24.2700 C.3    12  MET12       0.0595
     40  SD        42.0610   42.0020   25.4800 S.3    12  MET12      -0.1393
     41  CE        42.7520   41.1820   27.0920 C.3    12  MET12       0.0692
     42  N         40.2660   37.8890   18.0720 N.3    16  ILE16      -0.1245
     43  CA        38.8930   38.0690   17.6410 C.3    16  ILE16       0.1561
     44  C         38.8450   38.0060   16.1070 C.2    16  ILE16       0.2260
     45  O         37.9820   37.3630   15.5490 O.2    16  ILE16      -0.2867
     46  CB        38.3580   39.4240   18.1400 C.3    16  ILE16       0.0252
     47  CG1       38.2310   39.4230   19.6740 C.3    16  ILE16       0.0019
     48  CG2       36.9950   39.7260   17.5220 C.3    16  ILE16       0.0019
     49  CD1       38.1780   40.8480   20.2490 C.3    16  ILE16       0.0001
     50  N         26.3690   45.7190   21.1740 N.3    37  LEU37      -0.1245
     51  CA        27.3590   46.4380   21.9760 C.3    37  LEU37       0.1561
     52  C         26.8640   47.8440   22.3550 C.2    37  LEU37       0.2260
     53  O         27.0430   48.3010   23.4890 O.2    37  LEU37      -0.2867
     54  CB        28.6680   46.5030   21.1900 C.3    37  LEU37       0.0270
     55  CG        29.4370   45.1830   21.1130 C.3    37  LEU37       0.0019
     56  CD1       30.4390   45.2970   19.9430 C.3    37  LEU37       0.0001
     57  CD2       30.1660   44.8560   22.4420 C.3    37  LEU37       0.0001
     58  N         27.7060   47.5200   31.2210 N.3    46  TRP46      -0.1241
     59  CA        29.1460   47.2050   31.0990 C.3    46  TRP46       0.1605
     60  C         29.7200   46.4190   32.2980 C.2    46  TRP46       0.2264
     61  O         30.3050   45.3450   32.1010 O.2    46  TRP46      -0.2867
     62  CB        30.0040   48.4430   30.6800 C.3    46  TRP46       0.0550
     63  CG        29.8840   48.6420   29.1910 C.ar   46  TRP46       0.0003
     64  CD1       29.2390   49.6530   28.5090 C.ar   46  TRP46       0.0946
     65  CD2       30.3850   47.7410   28.1880 C.ar   46  TRP46       0.0152
     66  NE1       29.3360   49.4250   27.1490 N.ar   46  TRP46      -0.2442
     67  CE2       30.0440   48.2700   26.9310 C.ar   46  TRP46       0.0810
     68  CE3       31.0970   46.5280   28.2400 C.ar   46  TRP46       0.0012
     69  CZ2       30.3360   47.5970   25.7340 C.ar   46  TRP46       0.0191
     70  CZ3       31.4300   45.9000   27.0680 C.ar   46  TRP46       0.0001
     71  CH2       31.0450   46.4390   25.8190 C.ar   46  TRP46       0.0015
     72  N         28.0990   42.7640   32.2690 N.3    49  PHE49      -0.1227
     73  CA        28.5940   41.9130   31.2010 C.3    49  PHE49       0.1736
     74  C         30.0570   41.4940   31.4550 C.2    49  PHE49       0.2595
     75  O         30.4250   40.2970   31.3250 O.2    49  PHE49      -0.2718
     76  CB        28.4260   42.6360   29.8280 C.3    49  PHE49       0.0547
     77  CG        29.1750   42.0040   28.7240 C.ar   49  PHE49      -0.0202
     78  CD1       30.2810   42.6610   28.1460 C.ar   49  PHE49      -0.0042
     79  CD2       28.8390   40.7370   28.2860 C.ar   49  PHE49      -0.0042
     80  CE1       31.0390   42.0520   27.1420 C.ar   49  PHE49      -0.0003
     81  CE2       29.5900   40.1090   27.2810 C.ar   49  PHE49      -0.0003
     82  CZ        30.6790   40.7650   26.7000 C.ar   49  PHE49      -0.0000
     83  N         30.9030   42.4650   31.7540 N.am   50  LEU50      -0.1980
     84  CA        32.3370   42.1970   31.9110 C.3    50  LEU50       0.1596
     85  C         32.5790   41.2820   33.1350 C.2    50  LEU50       0.2287
     86  O         33.3280   40.2950   33.0710 O.2    50  LEU50      -0.2864
     87  CB        33.0970   43.5200   32.0850 C.3    50  LEU50       0.0297
     88  CG        33.1350   44.4000   30.8070 C.3    50  LEU50       0.0022
     89  CD1       33.6730   45.7840   31.1520 C.3    50  LEU50       0.0001
     90  CD2       33.9860   43.7410   29.7250 C.3    50  LEU50       0.0001
     91  N         34.4760   37.9970   32.1790 N.3    54  PHE54      -0.1241
     92  CA        35.9260   38.2670   32.2650 C.3    54  PHE54       0.1605
     93  C         36.4840   38.4280   33.6730 C.2    54  PHE54       0.2264
     94  O         37.6630   38.1590   33.8870 O.2    54  PHE54      -0.2867
     95  CB        36.2380   39.5260   31.4480 C.3    54  PHE54       0.0534
     96  CG        35.7680   39.4140   30.0210 C.ar   54  PHE54      -0.0203
     97  CD1       34.6650   40.1150   29.5910 C.ar   54  PHE54      -0.0042
     98  CD2       36.3990   38.5420   29.1480 C.ar   54  PHE54      -0.0042
     99  CE1       34.2070   39.9750   28.2770 C.ar   54  PHE54      -0.0003
    100  CE2       35.9780   38.3990   27.8320 C.ar   54  PHE54      -0.0003
    101  CZ        34.8470   39.1290   27.3920 C.ar   54  PHE54      -0.0000
    102  N         40.5990   37.7430   35.3160 N.3    58  ILE58      -0.1245
    103  CA        41.3600   38.8010   35.9790 C.3    58  ILE58       0.1561
    104  C         41.6490   38.3810   37.4580 C.2    58  ILE58       0.2260
    105  O         42.7850   38.4890   37.9800 O.2    58  ILE58      -0.2867
    106  CB        40.5410   40.0990   35.9760 C.3    58  ILE58       0.0252
    107  CG1       40.3540   40.6680   34.5360 C.3    58  ILE58       0.0019
    108  CG2       41.1820   41.1680   36.8540 C.3    58  ILE58       0.0019
    109  CD1       41.6910   41.2120   33.9090 C.3    58  ILE58       0.0001
@<TRIPOS>BOND
     1    45    44    2
     2    44    43    1
     3    48    46    1
     4    43    42    1
     5    43    46    1
     6    46    47    1
     7    47    49    1
     8    56    55    1
     9    37    36    2
    10    36    35    1
    11    30    29    2
    12    55    54    1
    13    55    57    1
    14    50    51    1
    15    54    51    1
    16    29    28    1
    17    34    35    1
    18    35    38    1
    19    51    52    1
    20    32    31    1
    21    52    53    2
    22    38    39    1
    23    31    28    1
    24    31    33    1
    25    28    27    1
    26    22    21    2
    27    27    21   am
    28    21    20    1
    29    39    40    1
    30    15    14    2
    31    19    20    1
    32    14    13    1
    33    20    23    1
    34    40    41    1
    35    69    71   ar
    36    69    67   ar
    37    18    16    1
    38    71    70   ar
    39    13    16    1
    40    13    12    1
    41    16    17    1
    42     4     3    2
    43     1     2    1
    44    23    25    1
    45    23    24    1
    46    12     3   am
    47     3     2    1
    48    82    80   ar
    49    82    81   ar
    50    67    66   ar
    51    67    65   ar
    52    70    68   ar
    53     2     5    1
    54    80    78   ar
    55    66    64   ar
    56    81    79   ar
    57   101   100   ar
    58   101    99   ar
    59    24    26    1
    60   100    98   ar
    61    78    77   ar
    62    65    68   ar
    63    65    63   ar
    64    99    97   ar
    65    79    77   ar
    66    64    63   ar
    67     5     6    1
    68    77    76    1
    69    98    96   ar
    70    63    62    1
    71     6     7    1
    72    97    96   ar
    73    90    88    1
    74    76    73    1
    75    96    95    1
    76    62    59    1
    77    88    89    1
    78    88    87    1
    79     7     8    1
    80    59    58    1
    81    59    60    1
    82    10     9    1
    83    73    74    1
    84    73    72    1
    85    75    74    2
    86    95    92    1
    87    74    83   am
    88     8     9    2
    89     9    11    1
    90    83    84    1
    91    84    87    1
    92    84    85    1
    93    61    60    2
    94    91    92    1
    95    92    93    1
    96    86    85    2
    97    93    94    2
    98   109   107    1
    99   107   106    1
   100   102   103    1
   101   106   103    1
   102   106   108    1
   103   103   104    1
   104   104   105    2
