@<TRIPOS>MOLECULE
tmp/2boyH00.pdb
 117 112 0 0 0
SMALL
GASTEIGER

@<TRIPOS>ATOM
      1  N         25.7560   28.0880   16.7480 N.3     4  ARG4       -0.1231
      2  CA        26.6820   28.9950   16.0550 C.3     4  ARG4        0.1694
      3  C         27.0510   30.2190   16.9090 C.2     4  ARG4        0.2592
      4  O         28.2250   30.5510   17.0330 O.2     4  ARG4       -0.2718
      5  CB        26.0990   29.4670   14.7050 C.3     4  ARG4        0.0321
      6  CG        27.0390   30.4160   13.9380 C.3     4  ARG4        0.0489
      7  CD        26.5890   30.7420   12.4920 C.3     4  ARG4        0.2205
      8  NE        27.4090   31.7940   11.9130 N.pl3   4  ARG4       -0.0865
      9  CZ        28.6020   31.6040   11.3770 C.cat   4  ARG4        0.5346
     10  NH1       29.1110   30.3740   11.3130 N.pl3   4  ARG4        0.1354
     11  NH2       29.3020   32.6410   10.9010 N.pl3   4  ARG4        0.1354
     12  N         26.0480   30.8980   17.4550 N.am    5  THR5       -0.1953
     13  CA        26.2930   32.1070   18.2680 C.3     5  THR5        0.1897
     14  C         27.1230   31.7150   19.4860 C.2     5  THR5        0.2313
     15  O         28.1300   32.3570   19.7950 O.2     5  THR5       -0.2863
     16  CB        24.9540   32.7240   18.6610 C.3     5  THR5        0.1794
     17  OG1       24.3290   33.2390   17.4680 O.3     5  THR5       -0.2208
     18  CG2       25.1050   33.9560   19.5600 C.3     5  THR5        0.0378
     19  N         30.6980   31.0260   18.3650 N.3     8  ILE8       -0.1231
     20  CA        31.4940   32.2010   17.9780 C.3     8  ILE8        0.1692
     21  C         31.8350   33.0390   19.2080 C.2     8  ILE8        0.2591
     22  O         32.9890   33.3230   19.4640 O.2     8  ILE8       -0.2718
     23  CB        30.7620   33.0760   16.9320 C.3     8  ILE8        0.0266
     24  CG1       30.6500   32.3490   15.5890 C.3     8  ILE8        0.0019
     25  CG2       31.5060   34.4020   16.7170 C.3     8  ILE8        0.0020
     26  CD1       29.6650   33.0410   14.6570 C.3     8  ILE8        0.0001
     27  N         30.8200   33.3560   19.9920 N.am    9  VAL9       -0.1980
     28  CA        31.0010   34.1930   21.1930 C.3     9  VAL9        0.1595
     29  C         31.8810   33.4890   22.2470 C.2     9  VAL9        0.2287
     30  O         32.7520   34.1100   22.8760 O.2     9  VAL9       -0.2864
     31  CB        29.6320   34.6890   21.7290 C.3     9  VAL9        0.0276
     32  CG1       29.7860   35.6430   22.9480 C.3     9  VAL9        0.0022
     33  CG2       28.9130   35.4410   20.6480 C.3     9  VAL9        0.0022
     34  N         35.4470   33.7390   21.1940 N.3    12  MET12      -0.1230
     35  CA        35.9940   35.0860   21.3910 C.3    12  MET12       0.1702
     36  C         36.2660   35.3760   22.8780 C.2    12  MET12       0.2592
     37  O         37.3130   35.9190   23.2220 O.2    12  MET12      -0.2718
     38  CB        35.0520   36.1470   20.8280 C.3    12  MET12       0.0401
     39  CG        34.9480   36.0730   19.2910 C.3    12  MET12       0.0596
     40  SD        33.8380   37.2840   18.6330 S.3    12  MET12      -0.1393
     41  CE        34.0560   36.9020   16.8590 C.3    12  MET12       0.0692
     42  N         35.3150   35.0210   23.7350 N.am   13  ILE13      -0.1980
     43  CA        35.4870   35.2390   25.1870 C.3    13  ILE13       0.1595
     44  C         36.7060   34.4290   25.6890 C.2    13  ILE13       0.2287
     45  O         37.5930   34.9690   26.3760 O.2    13  ILE13      -0.2864
     46  CB        34.1850   34.8850   25.9620 C.3    13  ILE13       0.0276
     47  CG1       33.0930   35.9190   25.6940 C.3    13  ILE13       0.0022
     48  CG2       34.4610   34.7880   27.5000 C.3    13  ILE13       0.0022
     49  CD1       31.7040   35.4270   26.0400 C.3    13  ILE13       0.0001
     50  N         39.9430   36.0490   24.6800 N.3    16  ILE16      -0.1245
     51  CA        40.2340   37.2220   25.5130 C.3    16  ILE16       0.1561
     52  C         40.7830   36.8130   26.8740 C.2    16  ILE16       0.2260
     53  O         41.8030   37.3550   27.3240 O.2    16  ILE16      -0.2867
     54  CB        39.0040   38.1590   25.6270 C.3    16  ILE16       0.0252
     55  CG1       38.7660   38.7960   24.2630 C.3    16  ILE16       0.0019
     56  CG2       39.2240   39.2930   26.6840 C.3    16  ILE16       0.0019
     57  CD1       37.4030   39.4510   24.1410 C.3    16  ILE16       0.0001
     58  N         35.5290   51.3220   27.8860 N.3    37  LEU37      -0.1245
     59  CA        34.4230   50.7140   27.1220 C.3    37  LEU37       0.1561
     60  C         33.1410   51.4680   27.3140 C.2    37  LEU37       0.2260
     61  O         32.3760   51.6640   26.3090 O.2    37  LEU37      -0.2867
     62  CB        34.2120   49.2550   27.5180 C.3    37  LEU37       0.0270
     63  CG        35.2340   48.2510   26.9670 C.3    37  LEU37       0.0019
     64  CD1       35.2540   46.9990   27.8870 C.3    37  LEU37       0.0001
     65  CD2       35.0020   47.8660   25.5010 C.3    37  LEU37       0.0001
     66  N         31.0280   53.2460   18.7900 N.3    46  TRP46      -0.1241
     67  CA        31.0100   51.8230   18.4550 C.3    46  TRP46       0.1605
     68  C         31.2630   51.5510   16.9620 C.2    46  TRP46       0.2264
     69  O         32.1630   50.7750   16.6480 O.2    46  TRP46      -0.2867
     70  CB        29.7820   51.0640   19.0390 C.3    46  TRP46       0.0550
     71  CG        30.0310   50.7380   20.4790 C.ar   46  TRP46       0.0003
     72  CD1       29.4200   51.2830   21.5700 C.ar   46  TRP46       0.0946
     73  CD2       31.0550   49.8590   20.9900 C.ar   46  TRP46       0.0152
     74  NE1       29.9720   50.7700   22.7240 N.ar   46  TRP46      -0.2442
     75  CE2       30.9780   49.8940   22.3910 C.ar   46  TRP46       0.0810
     76  CE3       31.9880   48.9990   20.3910 C.ar   46  TRP46       0.0012
     77  CZ2       31.8300   49.1400   23.2130 C.ar   46  TRP46       0.0191
     78  CZ3       32.8240   48.2300   21.2120 C.ar   46  TRP46       0.0001
     79  CH2       32.7270   48.3110   22.6080 C.ar   46  TRP46       0.0015
     80  N         35.1110   52.4720   16.2670 N.3    49  PHE49      -0.1227
     81  CA        36.0570   51.5460   16.8490 C.3    49  PHE49       0.1736
     82  C         35.9840   50.2150   16.1460 C.2    49  PHE49       0.2595
     83  O         37.0060   49.7050   15.7360 O.2    49  PHE49      -0.2718
     84  CB        35.7720   51.3860   18.3250 C.3    49  PHE49       0.0547
     85  CG        36.5150   50.2580   18.9710 C.ar   49  PHE49      -0.0202
     86  CD1       37.8990   50.3060   19.1410 C.ar   49  PHE49      -0.0042
     87  CD2       35.8180   49.1540   19.4320 C.ar   49  PHE49      -0.0042
     88  CE1       38.5740   49.2180   19.7830 C.ar   49  PHE49      -0.0003
     89  CE2       36.4700   48.0840   20.0540 C.ar   49  PHE49      -0.0003
     90  CZ        37.8450   48.1130   20.2270 C.ar   49  PHE49      -0.0000
     91  N         34.7820   49.6610   15.9840 N.am   50  LEU50      -0.1980
     92  CA        34.6360   48.3590   15.3070 C.3    50  LEU50       0.1596
     93  C         35.1160   48.3950   13.8500 C.2    50  LEU50       0.2287
     94  O         35.8520   47.5080   13.3910 O.2    50  LEU50      -0.2864
     95  CB        33.1850   47.8430   15.3730 C.3    50  LEU50       0.0297
     96  CG        32.6790   47.6490   16.8070 C.3    50  LEU50       0.0022
     97  CD1       31.1750   47.3520   16.7750 C.3    50  LEU50       0.0001
     98  CD2       33.4860   46.5310   17.5660 C.3    50  LEU50       0.0001
     99  N         37.9370   45.7230   13.1710 N.3    54  PHE54      -0.1241
    100  CA        37.3350   44.4400   12.8250 C.3    54  PHE54       0.1605
    101  C         36.6500   44.3680   11.4560 C.2    54  PHE54       0.2264
    102  O         36.5660   43.2730   10.8650 O.2    54  PHE54      -0.2867
    103  CB        36.3620   43.9990   13.9210 C.3    54  PHE54       0.0534
    104  CG        36.9630   44.0560   15.3070 C.ar   54  PHE54      -0.0203
    105  CD1       36.6500   45.0960   16.1770 C.ar   54  PHE54      -0.0042
    106  CD2       37.8590   43.0780   15.7270 C.ar   54  PHE54      -0.0042
    107  CE1       37.2380   45.1770   17.4410 C.ar   54  PHE54      -0.0003
    108  CE2       38.4170   43.1360   16.9890 C.ar   54  PHE54      -0.0003
    109  CZ        38.1190   44.1810   17.8470 C.ar   54  PHE54      -0.0000
    110  N         35.6930   41.0480    8.7520 N.3    58  ILE58      -0.1245
    111  CA        34.3520   40.7130    8.2880 C.3    58  ILE58       0.1561
    112  C         34.2900   40.7880    6.7520 C.2    58  ILE58       0.2260
    113  O         33.7440   39.8980    6.0800 O.2    58  ILE58      -0.2867
    114  CB        33.3110   41.6930    8.8910 C.3    58  ILE58       0.0252
    115  CG1       33.2780   41.5790   10.4280 C.3    58  ILE58       0.0019
    116  CG2       31.8970   41.4610    8.2810 C.3    58  ILE58       0.0019
    117  CD1       32.5630   40.3220   10.8840 C.3    58  ILE58       0.0001
@<TRIPOS>BOND
     1   113   112    2
     2   112   111    1
     3   116   114    1
     4   111   110    1
     5   111   114    1
     6   114   115    1
     7   115   117    1
     8   102   101    2
     9    11     9    1
    10    10     9    1
    11     9     8    2
    12   101   100    1
    13     8     7    1
    14     7     6    1
    15   100    99    1
    16   100   103    1
    17    94    93    2
    18    93    92    1
    19   103   104    1
    20     6     5    1
    21    26    24    1
    22     5     2    1
    23    92    95    1
    24    92    91    1
    25   104   106   ar
    26   104   105   ar
    27    95    96    1
    28    24    23    1
    29   106   108   ar
    30    83    82    2
    31    91    82   am
    32     2     1    1
    33     2     3    1
    34    82    81    1
    35   105   107   ar
    36    80    81    1
    37    69    68    2
    38    25    23    1
    39    97    96    1
    40    96    98    1
    41    81    84    1
    42    41    40    1
    43     3     4    2
    44     3    12   am
    45    23    20    1
    46    68    67    1
    47   108   109   ar
    48   107   109   ar
    49    12    13    1
    50    17    16    1
    51    20    19    1
    52    20    21    1
    53    13    16    1
    54    13    14    1
    55    84    85    1
    56    67    66    1
    57    67    70    1
    58    40    39    1
    59    16    18    1
    60    85    86   ar
    61    85    87   ar
    62    70    71    1
    63    86    88   ar
    64    21    22    2
    65    21    27   am
    66    39    38    1
    67    87    89   ar
    68    14    15    2
    69    88    90   ar
    70    27    28    1
    71    89    90   ar
    72    76    73   ar
    73    76    78   ar
    74    71    73   ar
    75    71    72   ar
    76    33    31    1
    77    38    35    1
    78    73    75   ar
    79    28    31    1
    80    28    29    1
    81    34    35    1
    82    78    79   ar
    83    35    36    1
    84    72    74   ar
    85    31    32    1
    86    29    30    2
    87    75    74   ar
    88    75    77   ar
    89    79    77   ar
    90    36    37    2
    91    36    42   am
    92    42    43    1
    93    57    55    1
    94    55    54    1
    95    50    51    1
    96    43    44    1
    97    43    46    1
    98    65    63    1
    99    51    54    1
   100    51    52    1
   101    54    56    1
   102    44    45    2
   103    47    46    1
   104    47    49    1
   105    46    48    1
   106    61    60    2
   107    52    53    2
   108    63    62    1
   109    63    64    1
   110    59    60    1
   111    59    62    1
   112    59    58    1
