@<TRIPOS>MOLECULE
tmp/2boyA01.pdb
 131 127 0 0 0
SMALL
GASTEIGER

@<TRIPOS>ATOM
      1  N          4.8480    3.6640   30.4380 N.3    16  ILE16      -0.1245
      2  CA         3.7030    2.7720   30.6420 C.3    16  ILE16       0.1561
      3  C          3.3640    2.7260   32.1370 C.2    16  ILE16       0.2260
      4  O          2.2020    2.7820   32.5170 O.2    16  ILE16      -0.2867
      5  CB         4.0360    1.3970   30.1080 C.3    16  ILE16       0.0252
      6  CG1        3.9490    1.4310   28.5680 C.3    16  ILE16       0.0019
      7  CG2        3.0940    0.3470   30.6590 C.3    16  ILE16       0.0019
      8  CD1        4.7250    0.3440   27.9720 C.3    16  ILE16       0.0001
      9  N         -0.1160    3.5090   34.2310 N.3    20  ILE20      -0.1245
     10  CA        -0.7000    2.6020   35.2200 C.3    20  ILE20       0.1561
     11  C         -1.0420    3.3540   36.5180 C.2    20  ILE20       0.2260
     12  O         -2.1210    3.1940   37.0650 O.2    20  ILE20      -0.2867
     13  CB         0.2660    1.4260   35.5280 C.3    20  ILE20       0.0252
     14  CG1        0.2550    0.4400   34.3510 C.3    20  ILE20       0.0019
     15  CG2       -0.1120    0.7640   36.8920 C.3    20  ILE20       0.0019
     16  CD1        1.3250   -0.6250   34.4070 C.3    20  ILE20       0.0001
     17  N         -4.6700    1.4590   37.0220 N.3    25  VAL25      -0.1245
     18  CA        -4.9210    0.2070   36.3330 C.3    25  VAL25       0.1561
     19  C         -4.9310   -0.8870   37.4020 C.2    25  VAL25       0.2260
     20  O         -4.0760   -0.8850   38.2840 O.2    25  VAL25      -0.2867
     21  CB        -3.8510   -0.0250   35.2420 C.3    25  VAL25       0.0252
     22  CG1       -3.9740   -1.4090   34.6240 C.3    25  VAL25       0.0019
     23  CG2       -3.9160    1.1100   34.1630 C.3    25  VAL25       0.0019
     24  N         -7.4290   -5.8390   35.2550 N.3    29  GLU29      -0.1231
     25  CA        -6.9810   -5.2650   33.9850 C.3    29  GLU29       0.1699
     26  C         -5.5910   -5.7990   33.5570 C.2    29  GLU29       0.2592
     27  O         -5.4120   -6.1480   32.3880 O.2    29  GLU29      -0.2718
     28  CB        -6.9930   -3.7360   34.0810 C.3    29  GLU29       0.0402
     29  CG        -8.4370   -3.2010   34.1710 C.3    29  GLU29       0.1161
     30  CD        -8.5400   -1.7320   34.5220 C.2    29  GLU29       0.3649
     31  OE1       -7.6060   -1.1780   35.1050 O.co2  29  GLU29      -0.2457
     32  OE2       -9.5750   -1.1140   34.1900 O.co2  29  GLU29      -0.2457
     33  N         -4.6470   -5.8610   34.5050 N.am   30  TYR30      -0.1976
     34  CA        -3.2990   -6.4270   34.2660 C.3    30  TYR30       0.1639
     35  C         -3.3920   -7.8880   33.8050 C.2    30  TYR30       0.2290
     36  O         -2.7360   -8.2640   32.8450 O.2    30  TYR30      -0.2864
     37  CB        -2.5090   -6.3990   35.5610 C.3    30  TYR30       0.0560
     38  CG        -1.0770   -6.8860   35.4870 C.ar   30  TYR30      -0.0198
     39  CD1       -0.6540   -7.9980   36.2530 C.ar   30  TYR30      -0.0009
     40  CD2       -0.1350   -6.2210   34.7190 C.ar   30  TYR30      -0.0009
     41  CE1        0.7090   -8.4390   36.2220 C.ar   30  TYR30       0.0417
     42  CE2        1.2050   -6.6440   34.6920 C.ar   30  TYR30       0.0417
     43  CZ         1.6140   -7.7560   35.4410 C.ar   30  TYR30       0.1957
     44  OH         2.9390   -8.1430   35.4110 O.3    30  TYR30      -0.2866
     45  N         -6.0660   -9.4370   32.4510 N.3    32  ALA32      -0.1231
     46  CA        -6.6890   -9.4440   31.1330 C.3    32  ALA32       0.1694
     47  C         -5.6610   -9.0490   30.0420 C.2    32  ALA32       0.2592
     48  O         -5.6340   -9.6490   28.9660 O.2    32  ALA32      -0.2718
     49  CB        -7.9190   -8.5170   31.0970 C.3    32  ALA32       0.0304
     50  N         -4.8010   -8.0750   30.3510 N.am   33  SER33      -0.1952
     51  CA        -3.7680   -7.6230   29.4090 C.3    33  SER33       0.1924
     52  C         -2.7300   -8.7060   29.1520 C.2    33  SER33       0.2314
     53  O         -2.2200   -8.8450   28.0290 O.2    33  SER33      -0.2863
     54  CB        -3.0290   -6.3790   29.9460 C.3    33  SER33       0.2116
     55  OG        -3.9680   -5.3330   30.1420 O.3    33  SER33      -0.2180
     56  N         -4.1590  -11.1450   26.8540 N.3    36  TRP36      -0.1227
     57  CA        -4.2310  -10.5500   25.5120 C.3    36  TRP36       0.1737
     58  C         -2.8800  -10.6060   24.8340 C.2    36  TRP36       0.2595
     59  O         -2.7640  -11.0520   23.6890 O.2    36  TRP36      -0.2718
     60  CB        -4.7610   -9.0970   25.5770 C.3    36  TRP36       0.0564
     61  CG        -4.8800   -8.4900   24.1900 C.ar   36  TRP36       0.0003
     62  CD1       -5.9270   -8.6330   23.3050 C.ar   36  TRP36       0.0946
     63  CD2       -3.9060   -7.7080   23.5370 C.ar   36  TRP36       0.0152
     64  NE1       -5.6420   -7.9750   22.1310 N.ar   36  TRP36      -0.2442
     65  CE2       -4.3990   -7.4080   22.2380 C.ar   36  TRP36       0.0810
     66  CE3       -2.6270   -7.2380   23.9000 C.ar   36  TRP36       0.0012
     67  CZ2       -3.6870   -6.6200   21.3230 C.ar   36  TRP36       0.0191
     68  CZ3       -1.9160   -6.4610   22.9900 C.ar   36  TRP36       0.0001
     69  CH2       -2.4460   -6.1730   21.6990 C.ar   36  TRP36       0.0015
     70  N         -1.8390  -10.1990   25.5440 N.am   37  LEU37      -0.1980
     71  CA        -0.4980  -10.2610   24.9490 C.3    37  LEU37       0.1596
     72  C         -0.1090  -11.6570   24.5040 C.2    37  LEU37       0.2287
     73  O          0.4180  -11.8530   23.3990 O.2    37  LEU37      -0.2864
     74  CB         0.5170   -9.6790   25.9380 C.3    37  LEU37       0.0297
     75  CG         0.3630   -8.1590   26.0730 C.3    37  LEU37       0.0022
     76  CD1        1.0210   -7.7240   27.3800 C.3    37  LEU37       0.0001
     77  CD2        1.0540   -7.4600   24.8870 C.3    37  LEU37       0.0001
     78  N          1.9190  -10.4720   15.9160 N.3    46  TRP46      -0.1241
     79  CA         2.8650   -9.3850   16.2470 C.3    46  TRP46       0.1605
     80  C          3.1020   -8.3980   15.0900 C.2    46  TRP46       0.2264
     81  O          3.0030   -7.2040   15.2910 O.2    46  TRP46      -0.2867
     82  CB         4.1880   -9.9250   16.8410 C.3    46  TRP46       0.0550
     83  CG         3.9490  -10.2580   18.2790 C.ar   46  TRP46       0.0003
     84  CD1        3.8770  -11.4950   18.8420 C.ar   46  TRP46       0.0946
     85  CD2        3.6690   -9.3210   19.3080 C.ar   46  TRP46       0.0152
     86  NE1        3.5940  -11.3830   20.1840 N.ar   46  TRP46      -0.2442
     87  CE2        3.4660  -10.0520   20.4980 C.ar   46  TRP46       0.0810
     88  CE3        3.5850   -7.9130   19.3510 C.ar   46  TRP46       0.0012
     89  CZ2        3.1570   -9.4350   21.7160 C.ar   46  TRP46       0.0191
     90  CZ3        3.2870   -7.2900   20.5610 C.ar   46  TRP46       0.0001
     91  CH2        3.0820   -8.0620   21.7370 C.ar   46  TRP46       0.0015
     92  N         -0.1620   -6.2240   14.7230 N.3    49  PHE49      -0.1241
     93  CA        -0.3560   -5.3010   15.8350 C.3    49  PHE49       0.1605
     94  C          0.6400   -4.1540   15.7670 C.2    49  PHE49       0.2264
     95  O          0.2670   -2.9710   15.8730 O.2    49  PHE49      -0.2867
     96  CB        -0.1730   -6.0510   17.1620 C.3    49  PHE49       0.0534
     97  CG        -0.1940   -5.1530   18.3600 C.ar   49  PHE49      -0.0203
     98  CD1        0.9400   -5.0200   19.1620 C.ar   49  PHE49      -0.0042
     99  CD2       -1.3070   -4.3970   18.6650 C.ar   49  PHE49      -0.0042
    100  CE1        0.9190   -4.1910   20.2830 C.ar   49  PHE49      -0.0003
    101  CE2       -1.3140   -3.5370   19.7690 C.ar   49  PHE49      -0.0003
    102  CZ        -0.1900   -3.4460   20.5640 C.ar   49  PHE49      -0.0000
    103  N          2.4210    1.1850   15.4790 N.3    54  PHE54      -0.1241
    104  CA         3.7770    1.7310   15.6390 C.3    54  PHE54       0.1605
    105  C          4.5470    1.9650   14.3620 C.2    54  PHE54       0.2264
    106  O          5.4180    2.8390   14.3540 O.2    54  PHE54      -0.2867
    107  CB         4.6150    0.8710   16.5730 C.3    54  PHE54       0.0534
    108  CG         3.9830    0.6750   17.8930 C.ar   54  PHE54      -0.0203
    109  CD1        3.4620   -0.5570   18.2320 C.ar   54  PHE54      -0.0042
    110  CD2        3.8440    1.7480   18.7850 C.ar   54  PHE54      -0.0042
    111  CE1        2.8070   -0.7370   19.4750 C.ar   54  PHE54      -0.0003
    112  CE2        3.1890    1.5720   20.0170 C.ar   54  PHE54      -0.0003
    113  CZ         2.6710    0.3340   20.3560 C.ar   54  PHE54      -0.0000
    114  N         -9.4880   -7.3150   18.1630 N.3   176  ALA176     -0.1231
    115  CA       -10.1980   -7.3610   19.4720 C.3   176  ALA176      0.1694
    116  C         -9.8570   -6.1710   20.3410 C.2   176  ALA176      0.2591
    117  O        -10.7180   -5.6360   21.0250 O.2   176  ALA176     -0.2718
    118  CB        -9.9080   -8.6640   20.2370 C.3   176  ALA176      0.0304
    119  N         -8.5810   -5.7670   20.3640 N.am  177  LEU177     -0.1980
    120  CA        -8.2210   -4.5640   21.1080 C.3   177  LEU177      0.1596
    121  C         -8.9120   -3.2930   20.5460 C.2   177  LEU177      0.2287
    122  O         -9.4040   -2.4460   21.3070 O.2   177  LEU177     -0.2864
    123  CB        -6.6970   -4.3620   21.0750 C.3   177  LEU177      0.0297
    124  CG        -6.2000   -2.9820   21.5140 C.3   177  LEU177      0.0022
    125  CD1       -6.4690   -2.7510   23.0120 C.3   177  LEU177      0.0001
    126  CD2       -4.7200   -2.9070   21.2200 C.3   177  LEU177      0.0001
    127  N        -12.4080   -3.3180   21.6530 N.3   180  ALA180     -0.1245
    128  CA       -12.5170   -3.0380   23.0890 C.3   180  ALA180      0.1562
    129  C        -12.2070   -1.5940   23.4650 C.2   180  ALA180      0.2260
    130  O        -12.7630   -1.0850   24.4450 O.2   180  ALA180     -0.2867
    131  CB       -11.6430   -4.0210   23.9090 C.3   180  ALA180      0.0290
@<TRIPOS>BOND
     1   106   105    2
     2   105   104    1
     3    92    93    1
     4    80    81    2
     5    80    79    1
     6   103   104    1
     7   104   107    1
     8    94    93    1
     9    94    95    2
    10    93    96    1
    11    78    79    1
    12    79    82    1
    13   107   108    1
    14    82    83    1
    15    96    97    1
    16   108   109   ar
    17   108   110   ar
    18   114   115    1
    19   109   111   ar
    20    83    84   ar
    21    83    85   ar
    22    97    99   ar
    23    97    98   ar
    24    99   101   ar
    25   110   112   ar
    26    84    86   ar
    27    98   100   ar
    28    85    88   ar
    29    85    87   ar
    30    88    90   ar
    31   115   118    1
    32   115   116    1
    33   111   113   ar
    34   101   102   ar
    35   112   113   ar
    36    86    87   ar
    37   100   102   ar
    38   116   119   am
    39   116   117    2
    40   119   120    1
    41    87    89   ar
    42   121   120    1
    43   121   122    2
    44    90    91   ar
    45   123   120    1
    46   123   124    1
    47   126   124    1
    48    67    69   ar
    49    67    65   ar
    50   124   125    1
    51   127   128    1
    52    69    68   ar
    53    89    91   ar
    54    64    65   ar
    55    64    62   ar
    56    65    63   ar
    57    68    66   ar
    58   128   129    1
    59   128   131    1
    60    62    61   ar
    61    73    72    2
    62   129   130    2
    63    63    66   ar
    64    63    61   ar
    65    59    58    2
    66    61    60    1
    67    72    71    1
    68    58    57    1
    69    58    70   am
    70    77    75    1
    71    71    70    1
    72    71    74    1
    73    57    60    1
    74    57    56    1
    75    74    75    1
    76    75    76    1
    77     8     6    1
    78    53    52    2
    79     6     5    1
    80    48    47    2
    81    52    51    1
    82    51    54    1
    83    51    50    1
    84    54    55    1
    85    47    50   am
    86    47    46    1
    87     5     2    1
    88     5     7    1
    89     1     2    1
    90     2     3    1
    91    49    46    1
    92    46    45    1
    93     3     4    2
    94    27    26    2
    95    36    35    2
    96    26    25    1
    97    26    33   am
    98    35    34    1
    99    25    28    1
   100    25    24    1
   101    28    29    1
   102    23    21    1
   103    29    30    1
   104    32    30   ar
   105     9    10    1
   106    34    33    1
   107    34    37    1
   108    14    16    1
   109    14    13    1
   110    30    31   ar
   111    22    21    1
   112    42    40   ar
   113    42    43   ar
   114    40    38   ar
   115    10    13    1
   116    10    11    1
   117    21    18    1
   118    44    43    1
   119    43    41   ar
   120    38    37    1
   121    38    39   ar
   122    13    15    1
   123    41    39   ar
   124    18    17    1
   125    18    19    1
   126    11    12    2
   127    19    20    2
