@<TRIPOS>MOLECULE
tmp/2boyG01.pdb
 82 77 0 0 0
SMALL
GASTEIGER

@<TRIPOS>ATOM
      1  N         72.2620   63.4820   51.8170 N.3    17  ILE17      -0.1245
      2  CA        72.7830   64.3800   50.8060 C.3    17  ILE17       0.1561
      3  C         72.8810   65.8030   51.3650 C.2    17  ILE17       0.2260
      4  O         73.8670   66.4800   51.1540 O.2    17  ILE17      -0.2867
      5  CB        71.8860   64.3420   49.4990 C.3    17  ILE17       0.0252
      6  CG1       72.0870   63.0170   48.7480 C.3    17  ILE17       0.0019
      7  CG2       72.1330   65.5670   48.5840 C.3    17  ILE17       0.0019
      8  CD1       70.9120   62.6670   47.8580 C.3    17  ILE17       0.0001
      9  N         76.0000   68.4300   51.7580 N.3    21  ILE21      -0.1245
     10  CA        75.9790   69.8040   51.2370 C.3    21  ILE21       0.1561
     11  C         76.4760   70.7700   52.3170 C.2    21  ILE21       0.2260
     12  O         77.3090   71.6510   52.0370 O.2    21  ILE21      -0.2867
     13  CB        74.5420   70.1940   50.7460 C.3    21  ILE21       0.0252
     14  CG1       74.2650   69.5290   49.3940 C.3    21  ILE21       0.0019
     15  CG2       74.3740   71.7380   50.6390 C.3    21  ILE21       0.0019
     16  CD1       72.7360   69.5560   48.9610 C.3    21  ILE21       0.0001
     17  N         78.8120   73.0330   49.7610 N.3    26  VAL26      -0.1245
     18  CA        78.4770   73.0460   48.3370 C.3    26  VAL26       0.1561
     19  C         77.8590   74.3820   47.9570 C.2    26  VAL26       0.2260
     20  O         76.9550   74.9010   48.6510 O.2    26  VAL26      -0.2867
     21  CB        77.5190   71.8720   47.9900 C.3    26  VAL26       0.0252
     22  CG1       77.1660   71.8380   46.4880 C.3    26  VAL26       0.0019
     23  CG2       78.1680   70.5430   48.4590 C.3    26  VAL26       0.0019
     24  N         77.9310   75.0780   42.1720 N.3    30  GLU30      -0.1231
     25  CA        78.0610   73.6360   42.0820 C.3    30  GLU30       0.1699
     26  C         76.6420   73.0370   41.9410 C.2    30  GLU30       0.2592
     27  O         76.4040   72.0130   41.2630 O.2    30  GLU30      -0.2718
     28  CB        78.7630   73.1310   43.3380 C.3    30  GLU30       0.0402
     29  CG        80.2630   73.4420   43.2690 C.3    30  GLU30       0.1161
     30  CD        81.0180   73.2980   44.5940 C.2    30  GLU30       0.3649
     31  OE1       80.4270   73.2650   45.7090 O.co2  30  GLU30      -0.2457
     32  OE2       82.2610   73.1760   44.5010 O.co2  30  GLU30      -0.2457
     33  N         75.7110   73.7080   42.5880 N.am   31  TYR31      -0.1976
     34  CA        74.3060   73.2470   42.5990 C.3    31  TYR31       0.1639
     35  C         73.7540   73.3520   41.1940 C.2    31  TYR31       0.2290
     36  O         73.1340   72.3750   40.6910 O.2    31  TYR31      -0.2864
     37  CB        73.4760   74.0460   43.6150 C.3    31  TYR31       0.0560
     38  CG        71.9600   73.7100   43.6340 C.ar   31  TYR31      -0.0198
     39  CD1       71.5160   72.4820   44.0750 C.ar   31  TYR31      -0.0009
     40  CD2       71.0080   74.6700   43.2310 C.ar   31  TYR31      -0.0009
     41  CE1       70.1250   72.1670   44.1310 C.ar   31  TYR31       0.0417
     42  CE2       69.6250   74.3770   43.2370 C.ar   31  TYR31       0.0417
     43  CZ        69.1990   73.1280   43.6970 C.ar   31  TYR31       0.1957
     44  OH        67.8430   72.8200   43.7660 O.3    31  TYR31      -0.2866
     45  N         75.5310   73.4520   38.3690 N.3    33  ALA33      -0.1231
     46  CA        76.2720   72.5060   37.5260 C.3    33  ALA33       0.1694
     47  C         75.7140   71.0940   37.6790 C.2    33  ALA33       0.2592
     48  O         75.6090   70.3680   36.6950 O.2    33  ALA33      -0.2718
     49  CB        77.7940   72.5220   37.8570 C.3    33  ALA33       0.0304
     50  N         75.3510   70.7110   38.8960 N.am   34  SER34      -0.1952
     51  CA        74.7990   69.3840   39.1610 C.3    34  SER34       0.1924
     52  C         73.4010   69.2370   38.5850 C.2    34  SER34       0.2314
     53  O         73.0350   68.1590   38.1290 O.2    34  SER34      -0.2863
     54  CB        74.7550   69.1070   40.6600 C.3    34  SER34       0.2116
     55  OG        76.0890   69.1690   41.1820 O.3    34  SER34      -0.2180
     56  N         72.4320   66.3170   36.0270 N.3    38  LEU38      -0.1245
     57  CA        71.3390   65.3660   36.2350 C.3    38  LEU38       0.1561
     58  C         70.3550   65.3740   35.0640 C.2    38  LEU38       0.2260
     59  O         69.8340   64.3040   34.6570 O.2    38  LEU38      -0.2867
     60  CB        70.5820   65.6650   37.5490 C.3    38  LEU38       0.0270
     61  CG        71.3160   65.2090   38.8130 C.3    38  LEU38       0.0019
     62  CD1       70.8140   66.0510   40.0040 C.3    38  LEU38       0.0001
     63  CD2       71.0480   63.7360   39.0990 C.3    38  LEU38       0.0001
     64  N         70.3180   56.7000   32.7730 N.3    47  TRP47      -0.1241
     65  CA        69.9240   56.3350   34.1290 C.3    47  TRP47       0.1605
     66  C         70.3160   54.8980   34.4740 C.2    47  TRP47       0.2264
     67  O         70.9480   54.6820   35.5230 O.2    47  TRP47      -0.2867
     68  CB        68.4380   56.6450   34.4650 C.3    47  TRP47       0.0550
     69  CG        68.3040   58.1380   34.8340 C.ar   47  TRP47       0.0003
     70  CD1       67.7250   59.1260   34.1000 C.ar   47  TRP47       0.0946
     71  CD2       68.8820   58.7720   35.9710 C.ar   47  TRP47       0.0152
     72  NE1       67.8790   60.3400   34.7360 N.ar   47  TRP47      -0.2442
     73  CE2       68.5770   60.1460   35.8940 C.ar   47  TRP47       0.0810
     74  CE3       69.6140   58.3120   37.0820 C.ar   47  TRP47       0.0012
     75  CZ2       68.9810   61.0580   36.8760 C.ar   47  TRP47       0.0191
     76  CZ3       70.0100   59.2060   38.0360 C.ar   47  TRP47       0.0001
     77  CH2       69.6860   60.5650   37.9390 C.ar   47  TRP47       0.0015
     78  N         85.4510   63.9880   36.0810 N.3   181  ALA181     -0.1245
     79  CA        85.4070   65.1310   37.0120 C.3   181  ALA181      0.1562
     80  C         85.7640   64.7270   38.4460 C.2   181  ALA181      0.2260
     81  O         86.3170   65.5290   39.2200 O.2   181  ALA181     -0.2867
     82  CB        84.0400   65.8120   36.9640 C.3   181  ALA181      0.0290
@<TRIPOS>BOND
     1    64    65    1
     2    70    72   ar
     3    70    69   ar
     4    65    68    1
     5    65    66    1
     6    68    69    1
     7    66    67    2
     8    59    58    2
     9    72    73   ar
    10    69    71   ar
    11    58    57    1
    12    73    71   ar
    13    73    75   ar
    14    71    74   ar
    15    56    57    1
    16    78    79    1
    17    57    60    1
    18    48    47    2
    19    75    77   ar
    20    82    79    1
    21    79    80    1
    22    74    76   ar
    23    46    47    1
    24    46    49    1
    25    46    45    1
    26    60    61    1
    27    47    50   am
    28    77    76   ar
    29    53    52    2
    30    80    81    2
    31    52    51    1
    32    61    63    1
    33    61    62    1
    34    50    51    1
    35    51    54    1
    36    54    55    1
    37    36    35    2
    38    35    34    1
    39    27    26    2
    40    26    25    1
    41    26    33   am
    42    25    24    1
    43    25    28    1
    44    33    34    1
    45    34    37    1
    46    40    42   ar
    47    40    38   ar
    48    42    43   ar
    49    29    28    1
    50    29    30    1
    51    37    38    1
    52    38    39   ar
    53    43    44    1
    54    43    41   ar
    55    39    41   ar
    56    32    30   ar
    57    30    31   ar
    58    22    21    1
    59     8     6    1
    60    19    18    1
    61    19    20    2
    62    21    18    1
    63    21    23    1
    64    18    17    1
    65     7     5    1
    66     6     5    1
    67    16    14    1
    68    14    13    1
    69     5     2    1
    70    15    13    1
    71    13    10    1
    72     2     3    1
    73     2     1    1
    74     4     3    2
    75    10     9    1
    76    10    11    1
    77    12    11    2
