@<TRIPOS>MOLECULE
tmp/2boyA00.pdb
 145 140 0 0 0
SMALL
GASTEIGER

@<TRIPOS>ATOM
      1  N          1.1210   -7.6300   12.5500 N.3    48  LEU48      -0.1245
      2  CA        -0.0830   -6.8490   12.3640 C.3    48  LEU48       0.1561
      3  C         -0.2370   -5.7950   13.4610 C.2    48  LEU48       0.2260
      4  O         -0.4250   -4.6120   13.1810 O.2    48  LEU48      -0.2867
      5  CB        -1.3150   -7.7690   12.3060 C.3    48  LEU48       0.0270
      6  CG        -2.6950   -7.0900   12.2850 C.3    48  LEU48       0.0019
      7  CD1       -2.9130   -6.1870   11.0580 C.3    48  LEU48       0.0001
      8  CD2       -3.7570   -8.2180   12.3150 C.3    48  LEU48       0.0001
      9  N          2.5130   -3.1620   13.2380 N.3    51  ASP51      -0.1225
     10  CA         2.3640   -2.3820   12.0110 C.3    51  ASP51       0.1805
     11  C          1.1540   -1.4550   12.0590 C.2    51  ASP51       0.2597
     12  O          1.2260   -0.3490   11.4960 O.2    51  ASP51      -0.2718
     13  CB         2.2830   -3.2650   10.7690 C.3    51  ASP51       0.1424
     14  CG         3.6390   -3.8060   10.3590 C.2    51  ASP51       0.3668
     15  OD1        4.6730   -3.4890   11.0090 O.co2  51  ASP51      -0.2456
     16  OD2        3.7500   -4.5940    9.4070 O.co2  51  ASP51      -0.2456
     17  N          0.0800   -1.8570   12.7450 N.am   52  VAL52      -0.1980
     18  CA        -1.0750   -0.9560   12.9240 C.3    52  VAL52       0.1595
     19  C         -0.6990    0.2840   13.7670 C.2    52  VAL52       0.2287
     20  O         -0.9290    1.4400   13.3650 O.2    52  VAL52      -0.2864
     21  CB        -2.2890   -1.6850   13.5320 C.3    52  VAL52       0.0276
     22  CG1       -3.3690   -0.6940   14.0370 C.3    52  VAL52       0.0022
     23  CG2       -2.9000   -2.5810   12.4800 C.3    52  VAL52       0.0022
     24  N          4.2890    3.4310    5.2710 N.3    73  ILE73      -0.1245
     25  CA         4.5500    2.1200    5.8800 C.3    73  ILE73       0.1561
     26  C          4.4210    1.0220    4.8470 C.2    73  ILE73       0.2260
     27  O          3.6790    1.1630    3.8640 O.2    73  ILE73      -0.2867
     28  CB         3.6500    1.8150    7.1020 C.3    73  ILE73       0.0252
     29  CG1        2.1750    1.6300    6.6650 C.3    73  ILE73       0.0019
     30  CG2        3.7460    2.9410    8.1910 C.3    73  ILE73       0.0019
     31  CD1        1.2760    1.1460    7.8050 C.3    73  ILE73       0.0001
     32  N          3.3860   -2.1090    6.0000 N.3    75  GLY75      -0.1210
     33  CA         2.3340   -2.9760    6.5340 C.3    75  GLY75       0.1940
     34  C          2.7630   -4.4530    6.4660 C.2    75  GLY75       0.2454
     35  O          3.8810   -4.7900    6.0040 O.2    75  GLY75      -0.2732
     36  N          1.9130   -5.3520    6.9520 N.am   76  PRO76      -0.2717
     37  CA         2.3040   -6.7560    7.1550 C.3    76  PRO76       0.1535
     38  C          1.9040   -7.7270    6.0580 C.2    76  PRO76       0.2598
     39  O          2.1260   -8.9430    6.2310 O.2    76  PRO76      -0.2715
     40  CB         1.5370   -7.1250    8.4560 C.3    76  PRO76       0.0310
     41  CG         0.2270   -6.4030    8.2660 C.3    76  PRO76       0.0237
     42  CD         0.5930   -5.0550    7.5620 C.3    76  PRO76       0.0939
     43  N          1.3380   -7.2340    4.9610 N.am   77  TYR77      -0.1974
     44  CA         0.7680   -8.1100    3.9600 C.3    77  TYR77       0.1639
     45  C          1.5030   -8.1900    2.6360 C.2    77  TYR77       0.2290
     46  O          0.9380   -8.7190    1.6640 O.2    77  TYR77      -0.2864
     47  CB        -0.7090   -7.7230    3.6870 C.3    77  TYR77       0.0560
     48  CG        -1.5990   -7.8910    4.9030 C.ar   77  TYR77      -0.0198
     49  CD1       -1.2570   -8.7580    5.9530 C.ar   77  TYR77      -0.0009
     50  CD2       -2.7920   -7.2000    4.9800 C.ar   77  TYR77      -0.0009
     51  CE1       -2.1330   -8.9050    7.0740 C.ar   77  TYR77       0.0417
     52  CE2       -3.6480   -7.3320    6.0780 C.ar   77  TYR77       0.0417
     53  CZ        -3.3200   -8.1800    7.0990 C.ar   77  TYR77       0.1957
     54  OH        -4.2270   -8.2590    8.1550 O.3    77  TYR77      -0.2866
     55  N          0.8190   -4.3260   -4.5630 N.3   124  TRP124     -0.1241
     56  CA        -0.1990   -5.2220   -4.0160 C.3   124  TRP124      0.1605
     57  C         -1.3190   -4.3930   -3.4550 C.2   124  TRP124      0.2264
     58  O         -1.1160   -3.2510   -3.0290 O.2   124  TRP124     -0.2867
     59  CB         0.3700   -6.2310   -2.9750 C.3   124  TRP124      0.0550
     60  CG         0.9120   -5.6680   -1.6760 C.ar  124  TRP124      0.0003
     61  CD1        0.3560   -5.8080   -0.4410 C.ar  124  TRP124      0.0946
     62  CD2        2.1690   -4.9700   -1.4710 C.ar  124  TRP124      0.0152
     63  NE1        1.1580   -5.2320    0.5200 N.ar  124  TRP124     -0.2442
     64  CE2        2.2610   -4.6760   -0.0790 C.ar  124  TRP124      0.0810
     65  CE3        3.2000   -4.5300   -2.3310 C.ar  124  TRP124      0.0012
     66  CZ2        3.3450   -3.9550    0.4910 C.ar  124  TRP124      0.0191
     67  CZ3        4.2840   -3.8120   -1.7770 C.ar  124  TRP124      0.0001
     68  CH2        4.3390   -3.5210   -0.3740 C.ar  124  TRP124      0.0015
     69  N         -7.0210   -9.5290    0.9230 N.3   132  TYR132     -0.1241
     70  CA        -5.7580   -9.7630    0.2490 C.3   132  TYR132      0.1605
     71  C         -5.5120  -11.2290   -0.0600 C.2   132  TYR132      0.2264
     72  O         -5.8260  -12.0820    0.7590 O.2   132  TYR132     -0.2867
     73  CB        -4.6280   -9.3210    1.1640 C.3   132  TYR132      0.0534
     74  CG        -4.4030   -7.8110    1.2270 C.ar  132  TYR132     -0.0201
     75  CD1       -5.0310   -7.0390    2.2060 C.ar  132  TYR132     -0.0009
     76  CD2       -3.5580   -7.1720    0.3100 C.ar  132  TYR132     -0.0009
     77  CE1       -4.7960   -5.6500    2.2870 C.ar  132  TYR132      0.0417
     78  CE2       -3.3080   -5.7550    0.4050 C.ar  132  TYR132      0.0417
     79  CZ        -3.9250   -5.0390    1.3960 C.ar  132  TYR132      0.1957
     80  OH        -3.7200   -3.6950    1.4730 O.3   132  TYR132     -0.2866
     81  N        -10.3350   -1.4740    4.1300 N.3   166  TYR166     -0.1241
     82  CA        -9.9940   -2.7140    4.8540 C.3   166  TYR166      0.1605
     83  C        -10.3330   -2.4900    6.3540 C.2   166  TYR166      0.2264
     84  O         -9.9670   -1.4340    6.8720 O.2   166  TYR166     -0.2867
     85  CB        -8.4530   -2.9410    4.6940 C.3   166  TYR166      0.0534
     86  CG        -7.8850   -4.1860    5.3820 C.ar  166  TYR166     -0.0201
     87  CD1       -7.1860   -4.1040    6.6020 C.ar  166  TYR166     -0.0009
     88  CD2       -8.0310   -5.4430    4.8020 C.ar  166  TYR166     -0.0009
     89  CE1       -6.6840   -5.2680    7.2340 C.ar  166  TYR166      0.0417
     90  CE2       -7.5250   -6.5940    5.4160 C.ar  166  TYR166      0.0417
     91  CZ        -6.8750   -6.5030    6.6350 C.ar  166  TYR166      0.1957
     92  OH        -6.3970   -7.6600    7.2280 O.3   166  TYR166     -0.2866
     93  N         -9.2180   -4.1010    9.9940 N.3   168  ILE168     -0.1245
     94  CA        -8.4580   -5.0990   10.7550 C.3   168  ILE168      0.1561
     95  C         -9.4870   -6.0820   11.3550 C.2   168  ILE168      0.2260
     96  O        -10.4010   -5.6480   12.0330 O.2   168  ILE168     -0.2867
     97  CB        -7.6460   -4.4070   11.8960 C.3   168  ILE168      0.0252
     98  CG1       -6.7920   -3.2350   11.3600 C.3   168  ILE168      0.0019
     99  CG2       -6.8040   -5.4360   12.7130 C.3   168  ILE168      0.0019
    100  CD1       -5.9980   -3.5190   10.0940 C.3   168  ILE168      0.0001
    101  N         -8.6920    0.9770    7.5160 N.3   187  ARG187     -0.1245
    102  CA        -7.7640    1.7050    6.6380 C.3   187  ARG187      0.1563
    103  C         -8.5600    2.1890    5.3960 C.2   187  ARG187      0.2260
    104  O         -9.3630    1.4210    4.8480 O.2   187  ARG187     -0.2867
    105  CB        -6.6640    0.7470    6.1460 C.3   187  ARG187      0.0307
    106  CG        -5.8400    0.1160    7.2690 C.3   187  ARG187      0.0489
    107  CD        -4.3330    0.0360    6.9110 C.3   187  ARG187      0.2205
    108  NE        -3.8720    1.3950    6.6300 N.pl3 187  ARG187     -0.0865
    109  CZ        -3.0650    1.7500    5.6420 C.cat 187  ARG187      0.5346
    110  NH1       -2.5810    0.8380    4.7920 N.pl3 187  ARG187      0.1354
    111  NH2       -2.8010    3.0420    5.4860 N.pl3 187  ARG187      0.1354
    112  N         -6.2640    1.6760   -0.6590 N.3   190  HIS190     -0.1241
    113  CA        -4.8830    2.0470   -1.0400 C.3   190  HIS190      0.1621
    114  C         -4.2120    1.0020   -1.9500 C.2   190  HIS190      0.2264
    115  O         -4.5810   -0.1810   -1.9450 O.2   190  HIS190     -0.2867
    116  CB        -4.0200    2.2430    0.2350 C.3   190  HIS190      0.0745
    117  CG        -4.0180    1.0440    1.1250 C.ar  190  HIS190      0.0817
    118  ND1       -4.9860    0.8130    2.0730 N.ar  190  HIS190     -0.2268
    119  CD2       -3.2080   -0.0390    1.1360 C.ar  190  HIS190      0.1154
    120  CE1       -4.7590   -0.3590    2.6490 C.ar  190  HIS190      0.1986
    121  NE2       -3.6670   -0.8880    2.1090 N.ar  190  HIS190     -0.2212
    122  N         -0.3670   -0.4680   -2.5810 N.3   192  HIS192     -0.1241
    123  CA         1.0000   -0.5800   -1.9480 C.3   192  HIS192      0.1621
    124  C          2.0520   -0.6650   -3.0460 C.2   192  HIS192      0.2264
    125  O          1.8230   -1.3520   -4.0330 O.2   192  HIS192     -0.2867
    126  CB         1.1210   -1.8910   -1.1890 C.3   192  HIS192      0.0745
    127  CG         0.3910   -1.9260    0.1270 C.ar  192  HIS192      0.0817
    128  ND1        0.9510   -1.4230    1.2780 N.ar  192  HIS192     -0.2268
    129  CD2       -0.8160   -2.4470    0.4870 C.ar  192  HIS192      0.1154
    130  CE1        0.1080   -1.5910    2.2860 C.ar  192  HIS192      0.1986
    131  NE2       -0.9780   -2.1970    1.8270 N.ar  192  HIS192     -0.2212
    132  N          2.4610    4.0920   -0.3980 N.3   206  GLN206     -0.1245
    133  CA         1.0520    3.6930   -0.5880 C.3   206  GLN206      0.1566
    134  C          0.3730    4.8520   -1.2550 C.2   206  GLN206      0.2260
    135  O          0.7060    6.0020   -0.9660 O.2   206  GLN206     -0.2867
    136  CB         0.3760    3.5360    0.7620 C.3   206  GLN206      0.0367
    137  CG         0.8760    2.3320    1.5420 C.3   206  GLN206      0.0905
    138  CD        -0.0160    1.9590    2.6920 C.2   206  GLN206      0.2608
    139  OE1       -1.2450    2.1000    2.6210 O.2   206  GLN206     -0.2717
    140  NE2        0.5940    1.4550    3.7490 N.am  206  GLN206     -0.0878
    141  N         -4.1870    2.9360   10.9920 N.3   220  ALA220     -0.1245
    142  CA        -2.7220    2.8140   11.0030 C.3   220  ALA220      0.1562
    143  C         -1.9640    4.1560   10.9530 C.2   220  ALA220      0.2260
    144  O         -0.7370    4.1650   11.0070 O.2   220  ALA220     -0.2867
    145  CB        -2.2760    1.9120    9.8220 C.3   220  ALA220      0.0290
@<TRIPOS>BOND
     1    55    56    1
     2   125   124    2
     3    56    57    1
     4    56    59    1
     5    57    58    2
     6   124   123    1
     7    59    60    1
     8   122   123    1
     9    65    67   ar
    10    65    62   ar
    11   114   115    2
    12   114   113    1
    13   123   126    1
    14    67    68   ar
    15    60    62   ar
    16    60    61   ar
    17    62    64   ar
    18   134   135    2
    19   134   133    1
    20   126   127    1
    21   113   112    1
    22   113   116    1
    23   133   132    1
    24   133   136    1
    25    61    63   ar
    26    68    66   ar
    27    64    66   ar
    28    64    63   ar
    29    71    70    1
    30    71    72    2
    31   127   129   ar
    32   127   128   ar
    33   116   117    1
    34    70    69    1
    35    70    73    1
    36    76    78   ar
    37    76    74   ar
    38    78    79   ar
    39   129   131   ar
    40   136   137    1
    41   117   119   ar
    42   117   118   ar
    43   119   121   ar
    44    73    74    1
    45    74    75   ar
    46   128   130   ar
    47    79    80    1
    48    79    77   ar
    49   137   138    1
    50    46    45    2
    51   131   130   ar
    52   118   120   ar
    53   121   120   ar
    54    75    77   ar
    55   139   138    2
    56    45    44    1
    57   138   140   am
    58    47    44    1
    59    47    48    1
    60    27    26    2
    61    44    43    1
    62    81    82    1
    63    85    82    1
    64    85    86    1
    65   110   109    1
    66    88    86   ar
    67    88    90   ar
    68    26    25    1
    69   104   103    2
    70    82    83    1
    71    48    50   ar
    72    48    49   ar
    73    43    38   am
    74    50    52   ar
    75    24    25    1
    76    86    87   ar
    77   103   102    1
    78    90    91   ar
    79   111   109    1
    80   109   108    2
    81    25    28    1
    82    49    51   ar
    83    32    33    1
    84    35    34    2
    85    38    39    2
    86    38    37    1
    87    52    53   ar
    88   105   102    1
    89   105   106    1
    90    83    84    2
    91    34    33    1
    92    34    36   am
    93    87    89   ar
    94   108   107    1
    95    91    92    1
    96    91    89   ar
    97   102   101    1
    98    29    28    1
    99    29    31    1
   100   107   106    1
   101    36    37    1
   102    36    42    1
   103    51    53   ar
   104    53    54    1
   105    28    30    1
   106    37    40    1
   107    42    41    1
   108    41    40    1
   109    16    14   ar
   110   145   142    1
   111    93    94    1
   112   100    98    1
   113    14    13    1
   114    14    15   ar
   115    94    95    1
   116    94    97    1
   117    13    10    1
   118   143   142    1
   119   143   144    2
   120   141   142    1
   121     7     6    1
   122    95    96    2
   123    98    97    1
   124    12    11    2
   125    97    99    1
   126    10    11    1
   127    10     9    1
   128    11    17   am
   129     6     5    1
   130     6     8    1
   131     5     2    1
   132     2     1    1
   133     2     3    1
   134    23    21    1
   135    17    18    1
   136    18    21    1
   137    18    19    1
   138     4     3    2
   139    20    19    2
   140    21    22    1
