@<TRIPOS>MOLECULE
tmp/2boyH02.pdb
 88 83 0 0 0
SMALL
GASTEIGER

@<TRIPOS>ATOM
      1  N         39.9430   36.0490   24.6800 N.3    16  ILE16      -0.1245
      2  CA        40.2340   37.2220   25.5130 C.3    16  ILE16       0.1561
      3  C         40.7830   36.8130   26.8740 C.2    16  ILE16       0.2260
      4  O         41.8030   37.3550   27.3240 O.2    16  ILE16      -0.2867
      5  CB        39.0040   38.1590   25.6270 C.3    16  ILE16       0.0252
      6  CG1       38.7660   38.7960   24.2630 C.3    16  ILE16       0.0019
      7  CG2       39.2240   39.2930   26.6840 C.3    16  ILE16       0.0019
      8  CD1       37.4030   39.4510   24.1410 C.3    16  ILE16       0.0001
      9  N         44.3620   37.5670   28.9650 N.3    20  ILE20      -0.1245
     10  CA        44.3730   38.1060   30.3250 C.3    20  ILE20       0.1561
     11  C         45.3390   37.2690   31.2000 C.2    20  ILE20       0.2260
     12  O         46.1610   37.8260   31.9270 O.2    20  ILE20      -0.2867
     13  CB        42.9240   38.0490   30.9080 C.3    20  ILE20       0.0252
     14  CG1       42.0760   39.1990   30.3150 C.3    20  ILE20       0.0019
     15  CG2       42.9710   38.0700   32.4770 C.3    20  ILE20       0.0019
     16  CD1       40.5770   39.2560   30.7310 C.3    20  ILE20       0.0001
     17  N         46.9340   40.4130   33.1030 N.3    25  VAL25      -0.1245
     18  CA        46.1970   41.6550   33.1840 C.3    25  VAL25       0.1561
     19  C         45.6680   41.8480   34.6080 C.2    25  VAL25       0.2260
     20  O         45.0450   40.9190   35.1930 O.2    25  VAL25      -0.2867
     21  CB        45.0340   41.6730   32.1320 C.3    25  VAL25       0.0252
     22  CG1       44.2640   42.9660   32.2490 C.3    25  VAL25       0.0019
     23  CG2       45.6570   41.5500   30.7240 C.3    25  VAL25       0.0019
     24  N         43.6070   46.8060   38.0650 N.3    28  SER28      -0.1202
     25  CA        43.6510   48.2270   37.7030 C.3    28  SER28       0.2020
     26  C         43.4160   48.3900   36.2050 C.2    28  SER28       0.2619
     27  O         42.6970   49.2940   35.7870 O.2    28  SER28      -0.2717
     28  CB        45.0340   48.8450   38.0130 C.3    28  SER28       0.2103
     29  OG        45.1650   48.9910   39.4110 O.3    28  SER28      -0.2182
     30  N         44.0690   47.5430   35.4110 N.am   29  GLU29      -0.1965
     31  CA        43.8800   47.5390   33.9840 C.3    29  GLU29       0.1733
     32  C         42.4230   47.1780   33.6270 C.2    29  GLU29       0.2616
     33  O         41.8630   47.7430   32.7110 O.2    29  GLU29      -0.2715
     34  CB        44.8570   46.5760   33.3300 C.3    29  GLU29       0.0429
     35  CG        46.3050   47.1020   33.4700 C.3    29  GLU29       0.1163
     36  CD        47.3940   46.1110   33.0900 C.2    29  GLU29       0.3649
     37  OE1       47.1870   44.8760   33.1300 O.co2  29  GLU29      -0.2457
     38  OE2       48.5030   46.5910   32.7500 O.co2  29  GLU29      -0.2457
     39  N         41.8520   46.2100   34.3400 N.am   30  TYR30      -0.1974
     40  CA        40.4590   45.8010   34.0970 C.3    30  TYR30       0.1639
     41  C         39.5410   46.9750   34.3750 C.2    30  TYR30       0.2290
     42  O         38.6170   47.2630   33.5840 O.2    30  TYR30      -0.2864
     43  CB        40.1240   44.6040   34.9810 C.3    30  TYR30       0.0560
     44  CG        38.7090   44.0890   34.8850 C.ar   30  TYR30      -0.0198
     45  CD1       38.2450   43.4640   33.7260 C.ar   30  TYR30      -0.0009
     46  CD2       37.8480   44.1910   35.9880 C.ar   30  TYR30      -0.0009
     47  CE1       36.9210   42.9350   33.6700 C.ar   30  TYR30       0.0417
     48  CE2       36.5630   43.6910   35.9520 C.ar   30  TYR30       0.0417
     49  CZ        36.0930   43.0730   34.8060 C.ar   30  TYR30       0.1957
     50  OH        34.8170   42.5710   34.7900 O.3    30  TYR30      -0.2866
     51  N         40.3650   50.2560   34.2940 N.3    32  ALA32      -0.1231
     52  CA        40.5570   51.2610   33.2520 C.3    32  ALA32       0.1694
     53  C         39.8110   50.8520   31.9790 C.2    32  ALA32       0.2592
     54  O         39.2120   51.7070   31.3050 O.2    32  ALA32      -0.2718
     55  CB        42.0790   51.4810   32.9490 C.3    32  ALA32       0.0304
     56  N         39.8330   49.5510   31.6800 N.am   33  SER33      -0.1952
     57  CA        39.2830   49.0540   30.4310 C.3    33  SER33       0.1924
     58  C         37.7640   49.1570   30.4780 C.2    33  SER33       0.2314
     59  O         37.1340   49.4770   29.4600 O.2    33  SER33      -0.2863
     60  CB        39.6810   47.6030   30.1980 C.3    33  SER33       0.2116
     61  OG        41.0900   47.4950   29.9890 O.3    33  SER33      -0.2180
     62  N         35.5290   51.3220   27.8860 N.3    37  LEU37      -0.1245
     63  CA        34.4230   50.7140   27.1220 C.3    37  LEU37       0.1561
     64  C         33.1410   51.4680   27.3140 C.2    37  LEU37       0.2260
     65  O         32.3760   51.6640   26.3090 O.2    37  LEU37      -0.2867
     66  CB        34.2120   49.2550   27.5180 C.3    37  LEU37       0.0270
     67  CG        35.2340   48.2510   26.9670 C.3    37  LEU37       0.0019
     68  CD1       35.2540   46.9990   27.8870 C.3    37  LEU37       0.0001
     69  CD2       35.0020   47.8660   25.5010 C.3    37  LEU37       0.0001
     70  N         31.0280   53.2460   18.7900 N.3    46  TRP46      -0.1241
     71  CA        31.0100   51.8230   18.4550 C.3    46  TRP46       0.1605
     72  C         31.2630   51.5510   16.9620 C.2    46  TRP46       0.2264
     73  O         32.1630   50.7750   16.6480 O.2    46  TRP46      -0.2867
     74  CB        29.7820   51.0640   19.0390 C.3    46  TRP46       0.0550
     75  CG        30.0310   50.7380   20.4790 C.ar   46  TRP46       0.0003
     76  CD1       29.4200   51.2830   21.5700 C.ar   46  TRP46       0.0946
     77  CD2       31.0550   49.8590   20.9900 C.ar   46  TRP46       0.0152
     78  NE1       29.9720   50.7700   22.7240 N.ar   46  TRP46      -0.2442
     79  CE2       30.9780   49.8940   22.3910 C.ar   46  TRP46       0.0810
     80  CE3       31.9880   48.9990   20.3910 C.ar   46  TRP46       0.0012
     81  CZ2       31.8300   49.1400   23.2130 C.ar   46  TRP46       0.0191
     82  CZ3       32.8240   48.2300   21.2120 C.ar   46  TRP46       0.0001
     83  CH2       32.7270   48.3110   22.6080 C.ar   46  TRP46       0.0015
     84  N         47.4420   55.2180   23.3410 N.3   180  ALA180     -0.1245
     85  CA        47.8280   54.3290   24.4570 C.3   180  ALA180      0.1562
     86  C         48.5140   53.0300   24.0270 C.2   180  ALA180      0.2260
     87  O         49.3530   52.5070   24.7630 O.2   180  ALA180     -0.2867
     88  CB        46.6040   54.0260   25.3770 C.3   180  ALA180      0.0290
@<TRIPOS>BOND
     1    73    72    2
     2    72    71    1
     3    71    70    1
     4    71    74    1
     5    74    75    1
     6    80    77   ar
     7    80    82   ar
     8    75    77   ar
     9    75    76   ar
    10    77    79   ar
    11    82    83   ar
    12    76    78   ar
    13    79    78   ar
    14    79    81   ar
    15    83    81   ar
    16    84    85    1
    17    86    85    1
    18    86    87    2
    19     8     6    1
    20     6     5    1
    21    85    88    1
    22     1     2    1
    23    69    67    1
    24     2     5    1
    25     2     3    1
    26     5     7    1
    27    65    64    2
    28     3     4    2
    29    67    66    1
    30    67    68    1
    31    63    64    1
    32    63    66    1
    33    63    62    1
    34     9    10    1
    35    59    58    2
    36    61    60    1
    37    60    57    1
    38    14    16    1
    39    14    13    1
    40    10    13    1
    41    10    11    1
    42    57    58    1
    43    57    56    1
    44    23    21    1
    45    13    15    1
    46    11    12    2
    47    54    53    2
    48    56    53   am
    49    53    52    1
    50    21    22    1
    51    21    18    1
    52    33    32    2
    53    38    36   ar
    54    55    52    1
    55    36    37   ar
    56    36    35    1
    57    17    18    1
    58    18    19    1
    59    52    51    1
    60    34    35    1
    61    34    31    1
    62    42    41    2
    63    32    31    1
    64    32    39   am
    65    47    45   ar
    66    47    49   ar
    67    45    44   ar
    68    31    30    1
    69    40    39    1
    70    40    41    1
    71    40    43    1
    72    19    20    2
    73    50    49    1
    74    49    48   ar
    75    44    43    1
    76    44    46   ar
    77    30    26   am
    78    27    26    2
    79    48    46   ar
    80    26    25    1
    81    25    28    1
    82    25    24    1
    83    28    29    1
