@<TRIPOS>MOLECULE
tmp/2bp1D01.pdb
 136 133 0 0 0
SMALL
GASTEIGER

@<TRIPOS>ATOM
      1  N        -52.6700   58.0660  -43.7040 N.3     9  MET9       -0.1245
      2  CA       -51.7890   57.6890  -44.8080 C.3     9  MET9        0.1570
      3  C        -52.0010   58.5640  -46.0640 C.2     9  MET9        0.2261
      4  O        -51.0530   58.8370  -46.8160 O.2     9  MET9       -0.2867
      5  CB       -52.0720   56.2270  -45.1190 C.3     9  MET9        0.0387
      6  CG       -51.3920   55.6400  -46.3180 C.3     9  MET9        0.0595
      7  SD       -51.7080   53.8640  -46.3280 S.3     9  MET9       -0.1393
      8  CE       -53.4360   53.7990  -46.6470 C.3     9  MET9        0.0692
      9  N        -42.9790   57.5590  -42.7140 N.3    40  MET40      -0.1230
     10  CA       -42.9710   57.4270  -44.1680 C.3    40  MET40       0.1702
     11  C        -44.2050   57.9820  -44.9100 C.2    40  MET40       0.2592
     12  O        -44.1680   58.1060  -46.1340 O.2    40  MET40      -0.2718
     13  CB       -42.6750   55.9680  -44.5580 C.3    40  MET40       0.0401
     14  CG       -43.8340   54.9990  -44.5740 C.3    40  MET40       0.0596
     15  SD       -44.4010   54.6840  -46.2750 S.3    40  MET40      -0.1393
     16  CE       -44.9700   53.0030  -46.1670 C.3    40  MET40       0.0692
     17  N        -45.2810   58.3090  -44.1950 N.am   41  TYR41      -0.1976
     18  CA       -46.5180   58.6870  -44.8580 C.3    41  TYR41       0.1639
     19  C        -46.3990   60.0120  -45.6040 C.2    41  TYR41       0.2290
     20  O        -45.9460   61.0310  -45.0320 O.2    41  TYR41      -0.2864
     21  CB       -47.6820   58.7130  -43.8590 C.3    41  TYR41       0.0560
     22  CG       -48.1480   57.3240  -43.3860 C.ar   41  TYR41      -0.0198
     23  CD1      -49.0490   57.2100  -42.3370 C.ar   41  TYR41      -0.0009
     24  CD2      -47.6690   56.1450  -43.9750 C.ar   41  TYR41      -0.0009
     25  CE1      -49.4690   55.9950  -41.8880 C.ar   41  TYR41       0.0417
     26  CE2      -48.0890   54.9210  -43.5390 C.ar   41  TYR41       0.0417
     27  CZ       -49.0000   54.8370  -42.4850 C.ar   41  TYR41       0.1957
     28  OH       -49.4430   53.6040  -41.9980 O.3    41  TYR41      -0.2866
     29  N        -44.4520   55.7660  -36.4040 N.3    69  LYS69      -0.1245
     30  CA       -43.7360   54.5100  -36.7220 C.3    69  LYS69       0.1561
     31  C        -42.3980   54.8090  -37.3850 C.2    69  LYS69       0.2260
     32  O        -42.3210   55.6990  -38.2620 O.2    69  LYS69      -0.2867
     33  CB       -44.5100   53.6420  -37.7270 C.3    69  LYS69       0.0271
     34  CG       -46.0260   53.5750  -37.5360 C.3    69  LYS69       0.0035
     35  CD       -46.6680   52.4530  -38.3480 C.3    69  LYS69       0.0206
     36  CE       -48.1790   52.4990  -38.2740 C.3    69  LYS69       0.1093
     37  NZ       -48.8120   53.6550  -38.9410 N.3    69  LYS69      -0.1314
     38  N        -36.9470   50.8580  -44.2470 N.3    73  TRP73      -0.1241
     39  CA       -36.9020   50.8940  -45.7000 C.3    73  TRP73       0.1605
     40  C        -35.9270   51.9140  -46.2710 C.2    73  TRP73       0.2264
     41  O        -35.3950   52.7630  -45.5600 O.2    73  TRP73      -0.2867
     42  CB       -38.3030   51.0860  -46.2560 C.3    73  TRP73       0.0550
     43  CG       -39.2300   50.0530  -45.7020 C.ar   73  TRP73       0.0003
     44  CD1      -38.9840   48.7260  -45.5770 C.ar   73  TRP73       0.0946
     45  CD2      -40.5400   50.2720  -45.1600 C.ar   73  TRP73       0.0152
     46  NE1      -40.0570   48.1010  -45.0020 N.ar   73  TRP73      -0.2442
     47  CE2      -41.0270   49.0290  -44.7430 C.ar   73  TRP73       0.0810
     48  CE3      -41.3550   51.4050  -45.0070 C.ar   73  TRP73       0.0012
     49  CZ2      -42.2810   48.8770  -44.1860 C.ar   73  TRP73       0.0191
     50  CZ3      -42.6170   51.2460  -44.4460 C.ar   73  TRP73       0.0001
     51  CH2      -43.0620   50.0040  -44.0470 C.ar   73  TRP73       0.0015
     52  N        -42.3720   49.7150  -37.5240 N.3   105  HIS105     -0.1241
     53  CA       -43.3430   49.7240  -38.6320 C.3   105  HIS105      0.1621
     54  C        -43.3670   48.3710  -39.3720 C.2   105  HIS105      0.2264
     55  O        -44.4380   47.8950  -39.7920 O.2   105  HIS105     -0.2867
     56  CB       -42.9840   50.8920  -39.5870 C.3   105  HIS105      0.0745
     57  CG       -44.0500   51.2600  -40.5810 C.ar  105  HIS105      0.0817
     58  ND1      -44.0330   52.4580  -41.2620 N.ar  105  HIS105     -0.2268
     59  CD2      -45.1570   50.6080  -41.0130 C.ar  105  HIS105      0.1154
     60  CE1      -45.0930   52.5420  -42.0460 C.ar  105  HIS105      0.1986
     61  NE2      -45.7920   51.4320  -41.9120 N.ar  105  HIS105     -0.2212
     62  N        -46.4580   44.2290  -38.3430 N.3   136  ASN136     -0.1240
     63  CA       -45.9850   43.3680  -39.4030 C.3   136  ASN136      0.1653
     64  C        -44.8770   42.3850  -39.0060 C.2   136  ASN136      0.2266
     65  O        -44.1810   41.8670  -39.8710 O.2   136  ASN136     -0.2867
     66  CB       -45.5430   44.2380  -40.5970 C.3   136  ASN136      0.1155
     67  CG       -46.6920   45.0610  -41.1680 C.2   136  ASN136      0.2627
     68  OD1      -47.7830   44.5330  -41.4060 O.2   136  ASN136     -0.2716
     69  ND2      -46.4540   46.3510  -41.3910 N.am  136  ASN136     -0.0877
     70  N        -55.4590   47.3700  -39.4430 N.3   189  TYR189     -0.1241
     71  CA       -55.3540   48.1410  -40.6930 C.3   189  TYR189      0.1605
     72  C        -55.8660   47.3390  -41.8930 C.2   189  TYR189      0.2264
     73  O        -56.1660   46.1690  -41.7660 O.2   189  TYR189     -0.2867
     74  CB       -53.9420   48.6780  -40.9170 C.3   189  TYR189      0.0534
     75  CG       -52.8830   47.7150  -41.3840 C.ar  189  TYR189     -0.0201
     76  CD1      -52.8140   47.3180  -42.7100 C.ar  189  TYR189     -0.0009
     77  CD2      -51.8810   47.2640  -40.5180 C.ar  189  TYR189     -0.0009
     78  CE1      -51.8240   46.4560  -43.1600 C.ar  189  TYR189      0.0417
     79  CE2      -50.8830   46.3960  -40.9680 C.ar  189  TYR189      0.0417
     80  CZ       -50.8580   46.0070  -42.2930 C.ar  189  TYR189      0.1957
     81  OH       -49.8730   45.1480  -42.7650 O.3   189  TYR189     -0.2866
     82  N        -47.5020   52.0910  -54.9470 N.3   220  TRP220     -0.1241
     83  CA       -47.9020   50.9390  -54.1220 C.3   220  TRP220      0.1605
     84  C        -49.0600   50.1200  -54.6830 C.2   220  TRP220      0.2264
     85  O        -49.4560   49.1040  -54.0800 O.2   220  TRP220     -0.2867
     86  CB       -48.2490   51.4130  -52.7250 C.3   220  TRP220      0.0550
     87  CG       -47.0440   51.8540  -52.0040 C.ar  220  TRP220      0.0003
     88  CD1      -46.2420   51.0970  -51.1950 C.ar  220  TRP220      0.0946
     89  CD2      -46.4580   53.1540  -52.0570 C.ar  220  TRP220      0.0152
     90  NE1      -45.1980   51.8600  -50.7210 N.ar  220  TRP220     -0.2442
     91  CE2      -45.3090   53.1280  -51.2310 C.ar  220  TRP220      0.0810
     92  CE3      -46.7960   54.3470  -52.7220 C.ar  220  TRP220      0.0012
     93  CZ2      -44.4930   54.2540  -51.0450 C.ar  220  TRP220      0.0191
     94  CZ3      -45.9870   55.4670  -52.5420 C.ar  220  TRP220      0.0001
     95  CH2      -44.8430   55.4120  -51.7040 C.ar  220  TRP220      0.0015
     96  N        -48.3550   46.4160  -55.1930 N.3   223  THR223     -0.1203
     97  CA       -48.3580   45.7620  -53.8950 C.3   223  THR223      0.1994
     98  C        -49.7820   45.4220  -53.4550 C.2   223  THR223      0.2617
     99  O        -50.0560   44.3220  -52.9650 O.2   223  THR223     -0.2717
    100  CB       -47.7110   46.6790  -52.8320 C.3   223  THR223      0.1784
    101  OG1      -46.4240   47.0640  -53.2940 O.3   223  THR223     -0.2211
    102  CG2      -47.5790   45.9730  -51.4790 C.3   223  THR223      0.0376
    103  N        -50.6790   46.3790  -53.6270 N.am  224  TYR224     -0.1975
    104  CA       -52.0750   46.2200  -53.1970 C.3   224  TYR224      0.1639
    105  C        -52.8340   45.2350  -54.0700 C.2   224  TYR224      0.2290
    106  O        -53.6580   44.4690  -53.5820 O.2   224  TYR224     -0.2864
    107  CB       -52.7870   47.5920  -53.0760 C.3   224  TYR224      0.0560
    108  CG       -52.6650   48.0880  -51.6750 C.ar  224  TYR224     -0.0198
    109  CD1      -51.5210   48.7680  -51.2450 C.ar  224  TYR224     -0.0009
    110  CD2      -53.6410   47.7830  -50.7350 C.ar  224  TYR224     -0.0009
    111  CE1      -51.3730   49.1740  -49.9210 C.ar  224  TYR224      0.0417
    112  CE2      -53.4980   48.1770  -49.4080 C.ar  224  TYR224      0.0417
    113  CZ       -52.3600   48.8690  -49.0110 C.ar  224  TYR224      0.1957
    114  OH       -52.2720   49.2680  -47.7120 O.3   224  TYR224     -0.2866
    115  N        -51.7500   41.9210  -52.9870 N.3   227  ARG227     -0.1245
    116  CA       -52.3230   41.6410  -51.6720 C.3   227  ARG227      0.1563
    117  C        -53.7910   41.1720  -51.7210 C.2   227  ARG227      0.2260
    118  O        -54.1670   40.2010  -51.0670 O.2   227  ARG227     -0.2867
    119  CB       -52.2200   42.8950  -50.8160 C.3   227  ARG227      0.0307
    120  CG       -52.3450   42.6500  -49.3240 C.3   227  ARG227      0.0489
    121  CD       -52.1760   43.9690  -48.5860 C.3   227  ARG227      0.2205
    122  NE       -50.7760   44.3350  -48.4880 N.pl3 227  ARG227     -0.0865
    123  CZ       -50.3140   45.4090  -47.8580 C.cat 227  ARG227      0.5346
    124  NH1      -51.1430   46.2760  -47.2800 N.pl3 227  ARG227      0.1354
    125  NH2      -49.0080   45.6120  -47.8120 N.pl3 227  ARG227      0.1354
    126  N        -43.9690   40.5150  -42.4700 N.3   323  ARG323     -0.1245
    127  CA       -43.0620   40.9500  -43.5280 C.3   323  ARG323      0.1563
    128  C        -41.6140   40.7590  -43.0930 C.2   323  ARG323      0.2260
    129  O        -41.3220   40.2710  -41.9780 O.2   323  ARG323     -0.2867
    130  CB       -43.3530   42.4280  -43.8650 C.3   323  ARG323      0.0307
    131  CG       -44.5580   42.5720  -44.7650 C.3   323  ARG323      0.0489
    132  CD       -45.5970   43.5590  -44.3000 C.3   323  ARG323      0.2205
    133  NE       -45.2530   44.9200  -44.6630 N.pl3 323  ARG323     -0.0865
    134  CZ       -46.1100   45.9350  -44.7830 C.cat 323  ARG323      0.5346
    135  NH1      -47.4100   45.7910  -44.5530 N.pl3 323  ARG323      0.1354
    136  NH2      -45.6450   47.1270  -45.1290 N.pl3 323  ARG323      0.1354
@<TRIPOS>BOND
     1    96    97    1
     2    82    83    1
     3    84    83    1
     4    84    85    2
     5    83    86    1
     6   105   106    2
     7   105   104    1
     8    97    98    1
     9    97   100    1
    10   103    98   am
    11   103   104    1
    12    98    99    2
    13   101   100    1
    14   104   107    1
    15   107   108    1
    16   115   116    1
    17   100   102    1
    18    86    87    1
    19    92    94   ar
    20    92    89   ar
    21    94    95   ar
    22    89    87   ar
    23    89    91   ar
    24    87    88   ar
    25   117   116    1
    26   117   118    2
    27    95    93   ar
    28   108   109   ar
    29   108   110   ar
    30   116   119    1
    31   109   111   ar
    32    91    93   ar
    33    91    90   ar
    34    88    90   ar
    35   119   120    1
    36   110   112   ar
    37   111   113   ar
    38   112   113   ar
    39   120   121    1
    40   113   114    1
    41   121   122    1
    42   122   123    2
    43   123   125    1
    44   123   124    1
    45     4     3    2
    46     8     7    1
    47     7     6    1
    48     6     5    1
    49    15    16    1
    50    15    14    1
    51    40    39    1
    52    40    41    2
    53    42    43    1
    54    42    39    1
    55    12    11    2
    56     3     2    1
    57    43    44   ar
    58    43    45   ar
    59    39    38    1
    60    19    20    2
    61    19    18    1
    62    44    46   ar
    63    45    48   ar
    64    45    47   ar
    65   136   134    1
    66     5     2    1
    67    48    50   ar
    68    46    47   ar
    69    11    17   am
    70    11    10    1
    71    18    17    1
    72    18    21    1
    73     2     1    1
    74   134   133    2
    75   134   135    1
    76   131   132    1
    77   131   130    1
    78    47    49   ar
    79   133   132    1
    80    14    13    1
    81    13    10    1
    82    50    51   ar
    83    49    51   ar
    84    10     9    1
    85    24    26   ar
    86    24    22   ar
    87   130   127    1
    88    21    22    1
    89    26    27   ar
    90   127   128    1
    91   127   126    1
    92    22    23   ar
    93    78    76   ar
    94    78    80   ar
    95   128   129    2
    96    81    80    1
    97    76    75   ar
    98    27    28    1
    99    27    25   ar
   100    23    25   ar
   101    80    79   ar
   102    60    61   ar
   103    60    58   ar
   104    61    59   ar
   105    72    73    2
   106    72    71    1
   107    68    67    2
   108    69    67   am
   109    75    74    1
   110    75    77   ar
   111    58    57   ar
   112    67    66    1
   113    59    57   ar
   114    79    77   ar
   115    74    71    1
   116    71    70    1
   117    66    63    1
   118    57    56    1
   119    65    64    2
   120    55    54    2
   121    56    53    1
   122    63    64    1
   123    63    62    1
   124    54    53    1
   125    37    36    1
   126    53    52    1
   127    35    36    1
   128    35    34    1
   129    32    31    2
   130    33    34    1
   131    33    30    1
   132    31    30    1
   133    30    29    1
