@<TRIPOS>MOLECULE
tmp/2bp5A00.pdb
 217 215 0 0 0
SMALL
GASTEIGER

@<TRIPOS>ATOM
      1  N         55.5700   -4.8120   -5.1310 N.3    15  LEU15      -0.1231
      2  CA        55.4230   -3.4090   -5.5490 C.3    15  LEU15       0.1693
      3  C         55.7620   -2.4560   -4.4440 C.2    15  LEU15       0.2592
      4  O         55.6510   -2.7520   -3.2290 O.2    15  LEU15      -0.2718
      5  CB        54.0170   -3.1280   -6.1010 C.3    15  LEU15       0.0284
      6  CG        52.8770   -3.3380   -5.0890 C.3    15  LEU15       0.0019
      7  CD1       52.6720   -2.1130   -4.2390 C.3    15  LEU15       0.0001
      8  CD2       51.5940   -3.6590   -5.7870 C.3    15  LEU15       0.0001
      9  N         56.1800   -1.2920   -4.8970 N.am   16  PHE16      -0.1962
     10  CA        56.5430   -0.1790   -4.0080 C.3    16  PHE16       0.1771
     11  C         55.7460    1.0740   -4.3660 C.2    16  PHE16       0.2619
     12  O         55.6590    1.4960   -5.5400 O.2    16  PHE16      -0.2715
     13  CB        58.0390    0.1130   -4.1020 C.3    16  PHE16       0.0574
     14  CG        58.9110   -1.0480   -3.7000 C.ar   16  PHE16      -0.0200
     15  CD1       59.2830   -2.0140   -4.6290 C.ar   16  PHE16      -0.0042
     16  CD2       59.3580   -1.1770   -2.3820 C.ar   16  PHE16      -0.0042
     17  CE1       60.0630   -3.0960   -4.2310 C.ar   16  PHE16      -0.0003
     18  CE2       60.1640   -2.2410   -1.9990 C.ar   16  PHE16      -0.0003
     19  CZ        60.5060   -3.2110   -2.9180 C.ar   16  PHE16      -0.0000
     20  N         55.1480    1.6590   -3.3440 N.am   17  LEU17      -0.1963
     21  CA        54.4560    2.9330   -3.5170 C.3    17  LEU17       0.1728
     22  C         55.1010    4.0270   -2.7120 C.2    17  LEU17       0.2616
     23  O         55.2640    3.8950   -1.4830 O.2    17  LEU17      -0.2715
     24  CB        53.0200    2.8230   -3.0260 C.3    17  LEU17       0.0311
     25  CG        52.1020    2.0130   -3.9050 C.3    17  LEU17       0.0022
     26  CD1       50.7980    1.8620   -3.1930 C.3    17  LEU17       0.0001
     27  CD2       51.9190    2.6950   -5.2700 C.3    17  LEU17       0.0001
     28  N         55.3900    5.1200   -3.4070 N.am   18  ASP18      -0.1971
     29  CA        55.8260    6.3530   -2.7710 C.3    18  ASP18       0.1709
     30  C         54.7640    7.4540   -2.8720 C.2    18  ASP18       0.2293
     31  O         54.3220    7.7790   -3.9620 O.2    18  ASP18      -0.2864
     32  CB        57.0960    6.8550   -3.4480 C.3    18  ASP18       0.1436
     33  CG        58.2420    5.9300   -3.2770 C.2    18  ASP18       0.3671
     34  OD1       58.1400    4.9620   -2.5310 O.co2  18  ASP18      -0.2456
     35  OD2       59.2710    6.1600   -3.8950 O.co2  18  ASP18      -0.2456
     36  N         56.4630    1.5910   -8.0840 N.3    45  LYS45      -0.1245
     37  CA        57.5340    0.7350   -8.5800 C.3    45  LYS45       0.1561
     38  C         56.9770   -0.6550   -8.4830 C.2    45  LYS45       0.2260
     39  O         56.7520   -1.1160   -7.3670 O.2    45  LYS45      -0.2867
     40  CB        58.7760    0.8730   -7.6970 C.3    45  LYS45       0.0271
     41  CG        59.5730    2.1530   -7.9270 C.3    45  LYS45       0.0035
     42  CD        60.5690    2.4020   -6.7820 C.3    45  LYS45       0.0206
     43  CE        60.7230    3.8970   -6.4900 C.3    45  LYS45       0.1093
     44  NZ        60.9420    4.0040   -5.0340 N.3    45  LYS45      -0.1314
     45  N         42.0190    7.0470    1.0660 N.3    59  ASN59      -0.1240
     46  CA        40.8890    7.6290    1.7660 C.3    59  ASN59       0.1653
     47  C         40.3820    8.9290    1.1370 C.2    59  ASN59       0.2266
     48  O         40.1930    9.9000    1.8090 O.2    59  ASN59      -0.2867
     49  CB        41.2260    7.7930    3.2370 C.3    59  ASN59       0.1155
     50  CG        42.4350    8.6250    3.4560 C.2    59  ASN59       0.2627
     51  OD1       42.6900    9.5480    2.7280 O.2    59  ASN59      -0.2716
     52  ND2       43.1990    8.2960    4.4520 N.am   59  ASN59      -0.0877
     53  N         59.2010   10.6730   13.7310 N.3   134  LEU134     -0.1245
     54  CA        60.2610   11.6930   13.6190 C.3   134  LEU134      0.1561
     55  C         60.2540   12.4370   12.2850 C.2   134  LEU134      0.2260
     56  O         60.1890   11.8390   11.1860 O.2   134  LEU134     -0.2867
     57  CB        61.6440   11.0750   13.6940 C.3   134  LEU134      0.0270
     58  CG        62.0830   10.2940   14.9200 C.3   134  LEU134      0.0019
     59  CD1       63.5540   10.0410   14.7990 C.3   134  LEU134      0.0001
     60  CD2       61.8320   11.0440   16.1650 C.3   134  LEU134      0.0001
     61  N         62.6560   14.7450   10.0610 N.3   136  GLN136     -0.1231
     62  CA        64.0730   15.0260    9.9520 C.3   136  GLN136      0.1698
     63  C         64.4590   16.0580    8.9010 C.2   136  GLN136      0.2592
     64  O         63.6370   16.5300    8.1420 O.2   136  GLN136     -0.2718
     65  CB        64.8340   13.7330    9.8240 C.3   136  GLN136      0.0381
     66  CG        64.5550   12.9270    8.5930 C.3   136  GLN136      0.0905
     67  CD        65.0000   11.4470    8.8060 C.2   136  GLN136      0.2608
     68  OE1       65.2000   11.0170    9.9520 O.2   136  GLN136     -0.2717
     69  NE2       65.2150   10.7000    7.6990 N.am  136  GLN136     -0.0878
     70  N         65.7240   16.4470    8.9510 N.am  137  LYS137     -0.1980
     71  CA        66.2790   17.5040    8.1490 C.3   137  LYS137      0.1596
     72  C         65.6060   18.8600    8.3740 C.2   137  LYS137      0.2287
     73  O         65.1660   19.5000    7.4160 O.2   137  LYS137     -0.2864
     74  CB        66.1900   17.1740    6.6930 C.3   137  LYS137      0.0298
     75  CG        66.9970   16.0090    6.2580 C.3   137  LYS137      0.0038
     76  CD        66.4590   15.5310    4.8990 C.3   137  LYS137      0.0206
     77  CE        67.1760   14.3090    4.4130 C.3   137  LYS137      0.1093
     78  NZ        66.2710   13.6910    3.3800 N.3   137  LYS137     -0.1314
     79  N         61.3880   17.2480    6.5180 N.3   209  GLU209     -0.1231
     80  CA        60.8310   16.0560    5.9030 C.3   209  GLU209      0.1699
     81  C         60.0510   15.3150    6.9750 C.2   209  GLU209      0.2592
     82  O         60.5170   15.2220    8.1120 O.2   209  GLU209     -0.2718
     83  CB        61.9870   15.1640    5.5420 C.3   209  GLU209      0.0402
     84  CG        61.9200   14.4650    4.2250 C.3   209  GLU209      0.1161
     85  CD        63.1220   13.4770    4.1170 C.2   209  GLU209      0.3649
     86  OE1       63.4690   13.0490    2.9570 O.co2 209  GLU209     -0.2457
     87  OE2       63.7240   13.1570    5.2170 O.co2 209  GLU209     -0.2457
     88  N         58.8920   14.7620    6.6360 N.am  210  VAL210     -0.1966
     89  CA        58.1170   13.9580    7.5970 C.3   210  VAL210      0.1712
     90  C         57.6120   12.7050    6.9600 C.2   210  VAL210      0.2458
     91  O         57.3490   12.6760    5.7730 O.2   210  VAL210     -0.2730
     92  CB        56.8990   14.7320    8.1950 C.3   210  VAL210      0.0289
     93  CG1       57.3670   15.8350    9.1170 C.3   210  VAL210      0.0023
     94  CG2       56.0340   15.3380    7.1330 C.3   210  VAL210      0.0023
     95  N         57.4280   11.6580    7.7520 N.am  211  PRO211     -0.2727
     96  CA        57.0240   10.3990    7.1710 C.3   211  PRO211      0.1402
     97  C         55.5150   10.2130    7.0750 C.2   211  PRO211      0.2269
     98  O         55.0540    9.1170    7.2970 O.2   211  PRO211     -0.2865
     99  CB        57.5990    9.4190    8.1520 C.3   211  PRO211      0.0296
    100  CG        57.4590   10.0910    9.4500 C.3   211  PRO211      0.0237
    101  CD        57.6120   11.5360    9.2110 C.3   211  PRO211      0.0939
    102  N         46.1010    8.6540    2.7760 N.3   218  LYS218     -0.1231
    103  CA        46.6440    7.3160    3.1090 C.3   218  LYS218      0.1693
    104  C         46.2160    6.3170    2.0550 C.2   218  LYS218      0.2592
    105  O         45.1710    6.4650    1.4240 O.2   218  LYS218     -0.2718
    106  CB        46.1790    6.8030    4.4670 C.3   218  LYS218      0.0285
    107  CG        46.4130    7.7870    5.5250 C.3   218  LYS218      0.0035
    108  CD        46.8360    7.1950    6.8380 C.3   218  LYS218      0.0206
    109  CE        46.2330    8.1210    7.9170 C.3   218  LYS218      0.1093
    110  NZ        46.7740    7.9390    9.2720 N.3   218  LYS218     -0.1314
    111  N         47.0530    5.3150    1.8610 N.am  219  VAL219     -0.1966
    112  CA        46.7630    4.2580    0.9390 C.3   219  VAL219      0.1727
    113  C         46.0230    3.1860    1.7420 C.2   219  VAL219      0.2616
    114  O         46.4810    2.7250    2.7930 O.2   219  VAL219     -0.2715
    115  CB        48.0550    3.7630    0.3030 C.3   219  VAL219      0.0290
    116  CG1       47.8100    2.5040   -0.4820 C.3   219  VAL219      0.0023
    117  CG2       48.6170    4.8460   -0.5890 C.3   219  VAL219      0.0023
    118  N         44.8420    2.8250    1.2550 N.am  220  ARG220     -0.1963
    119  CA        44.0050    1.8240    1.9340 C.3   220  ARG220      0.1729
    120  C         44.3010    0.3950    1.4350 C.2   220  ARG220      0.2616
    121  O         44.3700   -0.5610    2.2150 O.2   220  ARG220     -0.2715
    122  CB        42.5210    2.1760    1.7490 C.3   220  ARG220      0.0348
    123  CG        42.0530    3.3040    2.6450 C.3   220  ARG220      0.0492
    124  CD        40.7370    2.9450    3.3030 C.3   220  ARG220      0.2205
    125  NE        40.3880    3.8630    4.4020 N.pl3 220  ARG220     -0.0865
    126  CZ        39.5100    4.8840    4.3130 C.cat 220  ARG220      0.5346
    127  NH1       38.8630    5.1530    3.1760 N.pl3 220  ARG220      0.1354
    128  NH2       39.2640    5.6600    5.3770 N.pl3 220  ARG220      0.1354
    129  N         44.4830    0.2700    0.1320 N.am  221  TYR221     -0.1960
    130  CA        44.7770   -1.0100   -0.4790 C.3   221  TYR221      0.1771
    131  C         45.2870   -0.7660   -1.8910 C.2   221  TYR221      0.2619
    132  O         44.9800    0.2470   -2.5110 O.2   221  TYR221     -0.2715
    133  CB        43.5080   -1.8830   -0.5480 C.3   221  TYR221      0.0574
    134  CG        42.3700   -1.2810   -1.4070 C.ar  221  TYR221     -0.0198
    135  CD1       42.4400   -1.3180   -2.7960 C.ar  221  TYR221     -0.0009
    136  CD2       41.2400   -0.6850   -0.8210 C.ar  221  TYR221     -0.0009
    137  CE1       41.4460   -0.7810   -3.5780 C.ar  221  TYR221      0.0417
    138  CE2       40.2260   -0.1790   -1.5880 C.ar  221  TYR221      0.0417
    139  CZ        40.3290   -0.2210   -2.9760 C.ar  221  TYR221      0.1957
    140  OH        39.3640    0.3270   -3.8200 O.3   221  TYR221     -0.2866
    141  N         46.0450   -1.7220   -2.3960 N.am  222  LEU222     -0.1977
    142  CA        46.3280   -1.8130   -3.8180 C.3   222  LEU222      0.1596
    143  C         46.1750   -3.3000   -4.1040 C.2   222  LEU222      0.2287
    144  O         46.8690   -4.1490   -3.5120 O.2   222  LEU222     -0.2864
    145  CB        47.7080   -1.2750   -4.1690 C.3   222  LEU222      0.0297
    146  CG        47.9370   -1.0560   -5.6540 C.3   222  LEU222      0.0022
    147  CD1       48.9860   -0.0490   -5.8460 C.3   222  LEU222      0.0001
    148  CD2       48.3280   -2.3420   -6.3570 C.3   222  LEU222      0.0001
    149  N         53.9400   -8.7940   -2.5260 N.3   237  ILE237     -0.1231
    150  CA        54.5430   -8.1500   -1.3810 C.3   237  ILE237      0.1692
    151  C         54.4480   -6.6360   -1.5890 C.2   237  ILE237      0.2592
    152  O         54.9040   -6.0760   -2.6000 O.2   237  ILE237     -0.2718
    153  CB        55.9790   -8.6210   -1.1560 C.3   237  ILE237      0.0266
    154  CG1       56.0360  -10.1580   -1.1000 C.3   237  ILE237      0.0019
    155  CG2       56.5060   -8.0430    0.1480 C.3   237  ILE237      0.0020
    156  CD1       57.3890  -10.7590   -1.4580 C.3   237  ILE237      0.0001
    157  N         53.8130   -5.9750   -0.6400 N.am  238  LYS238     -0.1966
    158  CA        53.4340   -4.5730   -0.8360 C.3   238  LYS238      0.1728
    159  C         54.0940   -3.6260    0.1740 C.2   238  LYS238      0.2616
    160  O         54.0920   -3.9020    1.3910 O.2   238  LYS238     -0.2715
    161  CB        51.9230   -4.4580   -0.7750 C.3   238  LYS238      0.0311
    162  CG        51.2150   -5.1950   -1.9130 C.3   238  LYS238      0.0038
    163  CD        49.7140   -5.1980   -1.6370 C.3   238  LYS238      0.0206
    164  CE        48.9070   -6.1720   -2.4560 C.3   238  LYS238      0.1093
    165  NZ        47.5710   -6.2140   -1.8050 N.3   238  LYS238     -0.1314
    166  N         54.6450   -2.5280   -0.3510 N.am  239  TRP239     -0.1960
    167  CA        55.3420   -1.5230    0.4600 C.3   239  TRP239      0.1771
    168  C         54.8670   -0.1030    0.2230 C.2   239  TRP239      0.2620
    169  O         54.6640    0.2910   -0.8920 O.2   239  TRP239     -0.2715
    170  CB        56.8300   -1.5660    0.1050 C.3   239  TRP239      0.0590
    171  CG        57.5080   -2.9110    0.2860 C.ar  239  TRP239      0.0006
    172  CD1       57.7630   -3.8590   -0.6790 C.ar  239  TRP239      0.0946
    173  CD2       58.0430   -3.4150    1.4920 C.ar  239  TRP239      0.0152
    174  NE1       58.4190   -4.9320   -0.1260 N.ar  239  TRP239     -0.2442
    175  CE2       58.5830   -4.6960    1.2090 C.ar  239  TRP239      0.0810
    176  CE3       58.1110   -2.9180    2.7990 C.ar  239  TRP239      0.0012
    177  CZ2       59.1900   -5.4730    2.1820 C.ar  239  TRP239      0.0191
    178  CZ3       58.7200   -3.6700    3.7660 C.ar  239  TRP239      0.0001
    179  CH2       59.2630   -4.9370    3.4570 C.ar  239  TRP239      0.0015
    180  N         54.7290    0.6880    1.2620 N.am  240  VAL240     -0.1963
    181  CA        54.4660    2.1280    1.0840 C.3   240  VAL240      0.1727
    182  C         55.4520    2.9360    1.8640 C.2   240  VAL240      0.2616
    183  O         55.7980    2.6140    3.0100 O.2   240  VAL240     -0.2715
    184  CB        53.1730    2.6390    1.7430 C.3   240  VAL240      0.0290
    185  CG1       52.5960    3.7740    0.9260 C.3   240  VAL240      0.0023
    186  CG2       52.1980    1.5840    1.8620 C.3   240  VAL240      0.0023
    187  N         55.8340    4.0660    1.3090 N.am  241  ARG241     -0.1963
    188  CA        56.3860    5.0890    2.1720 C.3   241  ARG241      0.1729
    189  C         55.8110    6.4000    1.7740 C.2   241  ARG241      0.2616
    190  O         55.4930    6.6270    0.5960 O.2   241  ARG241     -0.2715
    191  CB        57.9310    5.1160    2.1410 C.3   241  ARG241      0.0348
    192  CG        58.5200    5.6160    0.8610 C.3   241  ARG241      0.0492
    193  CD        60.0230    5.4250    0.7580 C.3   241  ARG241      0.2205
    194  NE        60.4140    5.7070   -0.6300 N.pl3 241  ARG241     -0.0865
    195  CZ        61.6540    5.9460   -1.0450 C.cat 241  ARG241      0.5346
    196  NH1       62.6990    5.9670   -0.2210 N.pl3 241  ARG241      0.1354
    197  NH2       61.8400    6.1660   -2.3180 N.pl3 241  ARG241      0.1354
    198  N         55.7230    7.2400    2.7960 N.am  242  TYR242     -0.1960
    199  CA        55.3000    8.6100    2.6870 C.3   242  TYR242      0.1771
    200  C         56.4520    9.5490    2.9570 C.2   242  TYR242      0.2619
    201  O         57.1500    9.4160    3.9730 O.2   242  TYR242     -0.2715
    202  CB        54.2590    8.8810    3.7560 C.3   242  TYR242      0.0574
    203  CG        53.0340    8.0640    3.6000 C.ar  242  TYR242     -0.0198
    204  CD1       52.9150    6.8230    4.2290 C.ar  242  TYR242     -0.0009
    205  CD2       51.9850    8.5110    2.8000 C.ar  242  TYR242     -0.0009
    206  CE1       51.7910    6.0690    4.0780 C.ar  242  TYR242      0.0417
    207  CE2       50.8380    7.7440    2.6450 C.ar  242  TYR242      0.0417
    208  CZ        50.7640    6.5400    3.2970 C.ar  242  TYR242      0.1957
    209  OH        49.6460    5.8110    3.1460 O.3   242  TYR242     -0.2866
    210  N         56.6000   10.5270    2.0860 N.am  243  ILE243     -0.1977
    211  CA        57.6260   11.5420    2.2370 C.3   243  ILE243      0.1596
    212  C         57.0080   12.9270    2.0220 C.2   243  ILE243      0.2287
    213  O         56.7400   13.3650    0.8920 O.2   243  ILE243     -0.2864
    214  CB        58.8150   11.3230    1.2520 C.3   243  ILE243      0.0276
    215  CG1       59.4190    9.9310    1.4000 C.3   243  ILE243      0.0022
    216  CG2       59.9060   12.2940    1.5520 C.3   243  ILE243      0.0022
    217  CD1       60.2770    9.5630    0.2620 C.3   243  ILE243      0.0001
@<TRIPOS>BOND
     1    37    38    1
     2    37    36    1
     3    37    40    1
     4    38    39    2
     5    41    40    1
     6    41    42    1
     7    42    43    1
     8    43    44    1
     9   148   146    1
    10     5     2    1
    11     5     6    1
    12   147   146    1
    13     8     6    1
    14   146   145    1
    15     2     1    1
    16     2     3    1
    17    12    11    2
    18    27    25    1
    19     6     7    1
    20     9     3   am
    21     9    10    1
    22    15    17   ar
    23    15    14   ar
    24     3     4    2
    25    11    10    1
    26    11    20   am
    27    17    19   ar
    28   145   142    1
    29   143   142    1
    30   143   144    2
    31    13    10    1
    32    13    14    1
    33    31    30    2
    34    25    26    1
    35    25    24    1
    36    35    33   ar
    37   140   139    1
    38   142   141    1
    39    14    16   ar
    40   137   139   ar
    41   137   135   ar
    42    21    20    1
    43    21    24    1
    44    21    22    1
    45    32    33    1
    46    32    29    1
    47    28    29    1
    48    28    22   am
    49    33    34   ar
    50   139   138   ar
    51    19    18   ar
    52    30    29    1
    53   135   134   ar
    54    22    23    2
    55   152   151    2
    56   149   150    1
    57   132   131    2
    58   164   165    1
    59   164   163    1
    60   141   131   am
    61    16    18   ar
    62   197   195    1
    63   162   163    1
    64   162   161    1
    65   131   130    1
    66   151   150    1
    67   151   157   am
    68   138   136   ar
    69   156   154    1
    70   134   136   ar
    71   134   133    1
    72   150   153    1
    73   153   154    1
    74   153   155    1
    75   195   194    2
    76   195   196    1
    77   169   168    2
    78   158   161    1
    79   158   157    1
    80   158   159    1
    81   172   174   ar
    82   172   171   ar
    83   194   193    1
    84   117   115    1
    85   133   130    1
    86   116   115    1
    87   130   129    1
    88   166   159   am
    89   166   167    1
    90   174   175   ar
    91   170   171    1
    92   170   167    1
    93   129   120   am
    94   159   160    2
    95   168   167    1
    96   168   180   am
    97   217   215    1
    98   171   173   ar
    99   115   112    1
   100   190   189    2
   101   193   192    1
   102   192   191    1
   103   213   212    2
   104   185   184    1
   105   112   113    1
   106   112   111    1
   107    45    46    1
   108   181   180    1
   109   181   184    1
   110   181   182    1
   111    47    46    1
   112    47    48    2
   113   175   173   ar
   114   175   177   ar
   115   214   215    1
   116   214   216    1
   117   214   211    1
   118   118   113   am
   119   118   119    1
   120   187   182   am
   121   187   188    1
   122   105   104    2
   123   120   119    1
   124   120   121    2
   125   173   176   ar
   126   113   114    2
   127   184   186    1
   128   122   119    1
   129   122   123    1
   130    46    49    1
   131   189   188    1
   132   189   198   am
   133   111   104   am
   134   182   183    2
   135   212   211    1
   136   104   103    1
   137   210   211    1
   138   210   200   am
   139   191   188    1
   140   177   179   ar
   141   123   124    1
   142   207   205   ar
   143   207   208   ar
   144   199   198    1
   145   199   200    1
   146   199   202    1
   147    51    50    2
   148   102   103    1
   149   176   178   ar
   150   205   203   ar
   151    86    85   ar
   152   200   201    2
   153   103   106    1
   154   209   208    1
   155   127   126    1
   156    49    50    1
   157   208   206   ar
   158   124   125    1
   159    78    77    1
   160    50    52   am
   161   179   178   ar
   162   203   202    1
   163   203   204   ar
   164   206   204   ar
   165    85    84    1
   166    85    87   ar
   167    84    83    1
   168   126   125    2
   169   126   128    1
   170    77    76    1
   171   106   107    1
   172    76    75    1
   173   107   108    1
   174    83    80    1
   175    91    90    2
   176    80    79    1
   177    80    81    1
   178    75    74    1
   179    88    81   am
   180    88    89    1
   181    74    71    1
   182   108   109    1
   183    90    89    1
   184    90    95   am
   185    81    82    2
   186    97    96    1
   187    97    98    2
   188    94    92    1
   189    96    95    1
   190    96    99    1
   191    73    72    2
   192    89    92    1
   193    69    67   am
   194    95   101    1
   195   109   110    1
   196    64    63    2
   197    71    72    1
   198    71    70    1
   199    99   100    1
   200    92    93    1
   201    66    67    1
   202    66    65    1
   203    67    68    2
   204    63    70   am
   205    63    62    1
   206   101   100    1
   207    65    62    1
   208    62    61    1
   209    56    55    2
   210    55    54    1
   211    54    57    1
   212    54    53    1
   213    57    58    1
   214    59    58    1
   215    58    60    1
