@<TRIPOS>MOLECULE
tmp/2bpbB00.pdb
 176 173 0 0 0
SMALL
GASTEIGER

@<TRIPOS>ATOM
      1  N         88.6790   27.0180   33.8450 N.3    28  ASN28      -0.1225
      2  CA        88.8180   26.1470   32.6760 C.3    28  ASN28       0.1785
      3  C         87.7590   25.0500   32.5280 C.2    28  ASN28       0.2597
      4  O         87.5710   24.5240   31.4310 O.2    28  ASN28      -0.2718
      5  CB        90.2080   25.5030   32.6340 C.3    28  ASN28       0.1169
      6  CG        91.3160   26.5210   32.3540 C.2    28  ASN28       0.2627
      7  OD1       91.9540   27.0620   33.2810 O.2    28  ASN28      -0.2716
      8  ND2       91.5330   26.8020   31.0750 N.am   28  ASN28      -0.0877
      9  N         87.0710   24.7280   33.6130 N.am   29  CYS29      -0.1970
     10  CA        86.2540   23.5100   33.6730 C.3    29  CYS29       0.1712
     11  C         84.7460   23.7570   33.6670 C.2    29  CYS29       0.2296
     12  O         83.9730   22.8080   33.7630 O.2    29  CYS29      -0.2864
     13  CB        86.6760   22.6330   34.8730 C.3    29  CYS29       0.0983
     14  SG        88.4160   22.0670   34.8170 S.3    29  CYS29      -0.0798
     15  N         83.5180   25.9960   31.0980 N.3    31  ALA31      -0.1231
     16  CA        83.3120   26.5670   29.7510 C.3    31  ALA31       0.1694
     17  C         82.3580   25.7730   28.8630 C.2    31  ALA31       0.2592
     18  O         81.6600   26.3390   28.0090 O.2    31  ALA31      -0.2718
     19  CB        84.6410   26.7430   29.0420 C.3    31  ALA31       0.0304
     20  N         82.3580   24.4580   29.0100 N.am   32  CYS32      -0.1956
     21  CA        81.4970   23.6220   28.1740 C.3    32  CYS32       0.1843
     22  C         80.2870   23.0900   28.9260 C.2    32  CYS32       0.2625
     23  O         79.2130   22.9980   28.3610 O.2    32  CYS32      -0.2714
     24  CB        82.2880   22.4790   27.5540 C.3    32  CYS32       0.0997
     25  SG        83.4840   23.0480   26.3050 S.3    32  CYS32      -0.0797
     26  N         80.4790   22.7590   30.1980 N.am   33  HIS33      -0.1973
     27  CA        79.4420   22.1760   31.0200 C.3    33  HIS33       0.1656
     28  C         79.5110   22.7120   32.4650 C.2    33  HIS33       0.2291
     29  O         80.5350   23.2570   32.9270 O.2    33  HIS33      -0.2864
     30  CB        79.5380   20.6210   30.9860 C.3    33  HIS33       0.0771
     31  CG        80.8880   20.0800   31.3570 C.ar   33  HIS33       0.0820
     32  ND1       81.3910   20.1420   32.6380 N.ar   33  HIS33      -0.2267
     33  CD2       81.8330   19.4620   30.6110 C.ar   33  HIS33       0.1154
     34  CE1       82.5900   19.5860   32.6650 C.ar   33  HIS33       0.1986
     35  NE2       82.8800   19.1600   31.4480 N.ar   33  HIS33      -0.2212
     36  N         79.1010   18.0170   36.8570 N.3    37  TYR37      -0.1227
     37  CA        79.7850   16.8440   36.2590 C.3    37  TYR37       0.1736
     38  C         80.9130   16.3320   37.1580 C.2    37  TYR37       0.2595
     39  O         81.0820   15.1280   37.3500 O.2    37  TYR37      -0.2718
     40  CB        80.3660   17.1830   34.8570 C.3    37  TYR37       0.0548
     41  CG        79.3690   17.0580   33.7260 C.ar   37  TYR37      -0.0200
     42  CD1       78.4960   18.0970   33.4090 C.ar   37  TYR37      -0.0009
     43  CD2       79.2780   15.8720   32.9860 C.ar   37  TYR37      -0.0009
     44  CE1       77.5450   17.9550   32.3560 C.ar   37  TYR37       0.0417
     45  CE2       78.3460   15.7220   31.9680 C.ar   37  TYR37       0.0417
     46  CZ        77.4900   16.7640   31.6540 C.ar   37  TYR37       0.1957
     47  OH        76.6140   16.5800   30.5910 O.3    37  TYR37      -0.2866
     48  N         81.7150   17.2660   37.6750 N.am   38  ILE38      -0.1980
     49  CA        82.8440   16.9580   38.5270 C.3    38  ILE38       0.1595
     50  C         82.3360   16.5750   39.9430 C.2    38  ILE38       0.2287
     51  O         82.7780   15.5470   40.5050 O.2    38  ILE38      -0.2864
     52  CB        83.8330   18.1800   38.6260 C.3    38  ILE38       0.0276
     53  CG1       84.5490   18.4080   37.2990 C.3    38  ILE38       0.0022
     54  CG2       84.7990   18.0140   39.8150 C.3    38  ILE38       0.0022
     55  CD1       84.9060   19.8730   37.0330 C.3    38  ILE38       0.0001
     56  N         81.0510   12.9040   40.4760 N.3    41  GLN41      -0.1245
     57  CA        81.8990   11.7200   40.2060 C.3    41  GLN41       0.1566
     58  C         82.0550   10.8600   41.4790 C.2    41  GLN41       0.2260
     59  O         81.8580   11.3620   42.6030 O.2    41  GLN41      -0.2867
     60  CB        83.2880   12.1480   39.6540 C.3    41  GLN41       0.0367
     61  CG        83.1940   12.6790   38.2030 C.3    41  GLN41       0.0905
     62  CD        82.3320   11.7550   37.3480 C.2    41  GLN41       0.2608
     63  OE1       82.6900   10.6040   37.0940 O.2    41  GLN41      -0.2717
     64  NE2       81.1800   12.2500   36.9300 N.am   41  GLN41      -0.0878
     65  N         91.7160   11.2220   38.1320 N.3    50  TRP50      -0.1241
     66  CA        91.5180   12.6190   37.8130 C.3    50  TRP50       0.1605
     67  C         92.4910   13.0940   36.7290 C.2    50  TRP50       0.2264
     68  O         92.1050   13.9040   35.8930 O.2    50  TRP50      -0.2867
     69  CB        91.5350   13.4500   39.0950 C.3    50  TRP50       0.0550
     70  CG        90.2510   13.2920   39.8930 C.ar   50  TRP50       0.0003
     71  CD1       90.1030   12.6950   41.1180 C.ar   50  TRP50       0.0946
     72  CD2       88.9330   13.7340   39.5000 C.ar   50  TRP50       0.0152
     73  NE1       88.7760   12.7450   41.5160 N.ar   50  TRP50      -0.2442
     74  CE2       88.0420   13.3870   40.5470 C.ar   50  TRP50       0.0810
     75  CE3       88.4240   14.3960   38.3690 C.ar   50  TRP50       0.0012
     76  CZ2       86.6710   13.6770   40.4960 C.ar   50  TRP50       0.0191
     77  CZ3       87.0530   14.6890   38.3200 C.ar   50  TRP50       0.0001
     78  CH2       86.1930   14.3110   39.3690 C.ar   50  TRP50       0.0015
     79  N         90.7410   12.0220   33.6310 N.3    53  GLU53      -0.1231
     80  CA        89.5930   12.8970   33.3330 C.3    53  GLU53       0.1699
     81  C         90.0540   14.1690   32.6270 C.2    53  GLU53       0.2592
     82  O         89.5220   14.5500   31.5600 O.2    53  GLU53      -0.2718
     83  CB        88.7670   13.2500   34.5770 C.3    53  GLU53       0.0402
     84  CG        87.7170   12.2130   34.9800 C.3    53  GLU53       0.1161
     85  CD        86.7280   11.8280   33.8510 C.2    53  GLU53       0.3649
     86  OE1       86.3310   12.6800   33.0210 O.co2  53  GLU53      -0.2457
     87  OE2       86.3360   10.6550   33.8150 O.co2  53  GLU53      -0.2457
     88  N         91.0400   14.8270   33.2330 N.am   54  VAL54      -0.1980
     89  CA        91.5800   16.0980   32.6930 C.3    54  VAL54       0.1595
     90  C         92.1510   15.9170   31.2820 C.2    54  VAL54       0.2287
     91  O         91.8300   16.7060   30.4000 O.2    54  VAL54      -0.2864
     92  CB        92.6230   16.7250   33.6400 C.3    54  VAL54       0.0276
     93  CG1       93.2310   18.0010   33.0200 C.3    54  VAL54       0.0022
     94  CG2       91.9690   17.0370   35.0040 C.3    54  VAL54       0.0022
     95  N         91.4710   13.5450   29.0380 N.3    56  LYS56      -0.1231
     96  CA        90.3250   13.3220   28.1490 C.3    56  LYS56       0.1693
     97  C         89.6810   14.6470   27.7050 C.2    56  LYS56       0.2592
     98  O         89.3510   14.8060   26.5320 O.2    56  LYS56      -0.2718
     99  CB        89.3020   12.4160   28.8560 C.3    56  LYS56       0.0285
    100  CG        88.0290   12.1190   28.0590 C.3    56  LYS56       0.0035
    101  CD        87.0750   11.3110   28.9180 C.3    56  LYS56       0.0206
    102  CE        85.9110   10.8340   28.0980 C.3    56  LYS56       0.1093
    103  NZ        84.8420   10.2680   28.9290 N.3    56  LYS56      -0.1314
    104  N         89.4750   15.5860   28.6370 N.am   57  MET57      -0.1965
    105  CA        88.8590   16.8800   28.2970 C.3    57  MET57       0.1736
    106  C         89.7000   17.6410   27.2600 C.2    57  MET57       0.2616
    107  O         89.1720   18.2300   26.3060 O.2    57  MET57      -0.2715
    108  CB        88.6400   17.7430   29.5570 C.3    57  MET57       0.0427
    109  CG        87.7470   17.0580   30.5660 C.3    57  MET57       0.0599
    110  SD        86.1150   16.6890   29.8670 S.3    57  MET57      -0.1393
    111  CE        85.9360   14.9900   30.4580 C.3    57  MET57       0.0692
    112  N         91.0110   17.5760   27.4480 N.am   58  ILE58      -0.1977
    113  CA        91.9760   18.2330   26.5790 C.3    58  ILE58       0.1596
    114  C         92.1650   17.5110   25.2440 C.2    58  ILE58       0.2287
    115  O         92.0080   18.1230   24.1890 O.2    58  ILE58      -0.2864
    116  CB        93.3550   18.4010   27.2990 C.3    58  ILE58       0.0276
    117  CG1       93.2150   19.3150   28.5130 C.3    58  ILE58       0.0022
    118  CG2       94.4010   18.9610   26.3310 C.3    58  ILE58       0.0022
    119  CD1       94.4520   19.2570   29.4680 C.3    58  ILE58       0.0001
    120  N         88.0700   16.2210   23.8040 N.3    61  TYR61      -0.1227
    121  CA        87.0730   17.2960   23.6580 C.3    61  TYR61       0.1736
    122  C         87.6490   18.6590   23.3540 C.2    61  TYR61       0.2595
    123  O         86.8910   19.6050   23.1290 O.2    61  TYR61      -0.2718
    124  CB        86.1700   17.3820   24.8910 C.3    61  TYR61       0.0548
    125  CG        85.3730   16.1300   25.0870 C.ar   61  TYR61      -0.0200
    126  CD1       84.7030   15.5240   24.0080 C.ar   61  TYR61      -0.0009
    127  CD2       85.2850   15.5450   26.3290 C.ar   61  TYR61      -0.0009
    128  CE1       83.9680   14.3480   24.1800 C.ar   61  TYR61       0.0417
    129  CE2       84.5460   14.3760   26.5150 C.ar   61  TYR61       0.0417
    130  CZ        83.8940   13.7840   25.4490 C.ar   61  TYR61       0.1957
    131  OH        83.1780   12.6140   25.6680 O.3    61  TYR61      -0.2866
    132  N         88.9760   18.7520   23.3360 N.am   62  HIS62      -0.1961
    133  CA        89.6800   19.9620   22.8780 C.3    62  HIS62       0.1787
    134  C         89.5150   21.1530   23.8300 C.2    62  HIS62       0.2620
    135  O         89.4800   22.3090   23.3850 O.2    62  HIS62      -0.2715
    136  CB        89.2830   20.3170   21.4260 C.3    62  HIS62       0.0785
    137  CG        89.3650   19.1470   20.4820 C.ar   62  HIS62       0.0821
    138  ND1       90.5640   18.6170   20.0540 N.ar   62  HIS62      -0.2267
    139  CD2       88.3970   18.3850   19.9160 C.ar   62  HIS62       0.1154
    140  CE1       90.3330   17.5880   19.2560 C.ar   62  HIS62       0.1986
    141  NE2       89.0260   17.4330   19.1460 N.ar   62  HIS62      -0.2212
    142  N         89.4220   20.8650   25.1370 N.am   63  ALA63      -0.1964
    143  CA        89.4860   21.9040   26.1560 C.3    63  ALA63       0.1713
    144  C         90.8300   22.6370   25.9760 C.2    63  ALA63       0.2458
    145  O         91.8810   21.9840   25.8910 O.2    63  ALA63      -0.2730
    146  CB        89.3730   21.3000   27.5650 C.3    63  ALA63       0.0333
    147  N         90.7940   23.9810   25.8420 N.am   64  PRO64      -0.2716
    148  CA        92.0580   24.7090   25.6500 C.3    64  PRO64       0.1536
    149  C         92.7660   24.9260   26.9900 C.2    64  PRO64       0.2598
    150  O         92.7410   26.0410   27.5320 O.2    64  PRO64      -0.2715
    151  CB        91.5990   26.0410   25.0610 C.3    64  PRO64       0.0310
    152  CG        90.2510   26.2740   25.7140 C.3    64  PRO64       0.0237
    153  CD        89.6230   24.8890   25.8250 C.3    64  PRO64       0.0939
    154  N         93.4050   23.8730   27.5120 N.am   65  VAL65      -0.1978
    155  CA        94.0450   23.9610   28.8350 C.3    65  VAL65       0.1596
    156  C         95.5220   23.6220   28.6710 C.2    65  VAL65       0.2287
    157  O         95.8430   22.6080   28.0820 O.2    65  VAL65      -0.2864
    158  CB        93.3620   23.0180   29.8790 C.3    65  VAL65       0.0276
    159  CG1       93.9850   23.2200   31.2620 C.3    65  VAL65       0.0022
    160  CG2       91.8250   23.2570   29.9120 C.3    65  VAL65       0.0022
    161  N         95.0340   21.3950   38.0020 N.3    73  ILE73      -0.1245
    162  CA        93.6110   20.9960   38.0750 C.3    73  ILE73       0.1561
    163  C         93.4450   19.5600   38.5820 C.2    73  ILE73       0.2260
    164  O         92.7070   19.3290   39.5700 O.2    73  ILE73      -0.2867
    165  CB        92.8690   21.2690   36.7510 C.3    73  ILE73       0.0252
    166  CG1       92.7480   22.7960   36.5410 C.3    73  ILE73       0.0019
    167  CG2       91.4680   20.6040   36.7260 C.3    73  ILE73       0.0019
    168  CD1       92.5270   23.2490   35.0900 C.3    73  ILE73       0.0001
    169  N         91.8010   18.3550   42.0290 N.3    77  LEU77      -0.1245
    170  CA        90.6870   17.3920   42.0010 C.3    77  LEU77       0.1561
    171  C         90.9530   16.1410   42.8140 C.2    77  LEU77       0.2260
    172  O         90.1010   15.7380   43.6220 O.2    77  LEU77      -0.2867
    173  CB        90.2810   17.0360   40.5690 C.3    77  LEU77       0.0270
    174  CG        89.7300   18.2200   39.7660 C.3    77  LEU77       0.0019
    175  CD1       89.6920   17.8790   38.2800 C.3    77  LEU77       0.0001
    176  CD2       88.3620   18.6820   40.2940 C.3    77  LEU77       0.0001
@<TRIPOS>BOND
     1   141   140   ar
     2   141   139   ar
     3   140   138   ar
     4   139   137   ar
     5   138   137   ar
     6   137   136    1
     7   136   133    1
     8   133   132    1
     9   133   134    1
    10   123   122    2
    11   132   122   am
    12   122   121    1
    13   135   134    2
    14   121   120    1
    15   121   124    1
    16   134   142   am
    17   126   128   ar
    18   126   125   ar
    19   128   130   ar
    20   115   114    2
    21   124   125    1
    22   151   148    1
    23   151   152    1
    24   125   127   ar
    25   142   143    1
    26   114   113    1
    27   130   131    1
    28   130   129   ar
    29   148   147    1
    30   148   149    1
    31   152   153    1
    32   153   147    1
    33   147   144   am
    34   145   144    2
    35   144   143    1
    36   143   146    1
    37    25    24    1
    38   107   106    2
    39   127   129   ar
    40   118   116    1
    41    98    97    2
    42   113   116    1
    43   113   112    1
    44   149   154   am
    45   149   150    2
    46   106   112   am
    47   106   105    1
    48   116   117    1
    49   154   155    1
    50    24    21    1
    51    97    96    1
    52    97   104   am
    53    18    17    2
    54   100    99    1
    55   100   101    1
    56   157   156    2
    57   102   101    1
    58   102   103    1
    59    96    99    1
    60    96    95    1
    61    21    22    1
    62    21    20    1
    63   105   104    1
    64   105   108    1
    65    23    22    2
    66   117   119    1
    67   156   155    1
    68   155   158    1
    69    17    20   am
    70    17    16    1
    71    22    26   am
    72    19    16    1
    73   108   109    1
    74    16    15    1
    75   110   111    1
    76   110   109    1
    77   158   160    1
    78   158   159    1
    79    26    27    1
    80    91    90    2
    81    47    46    1
    82    33    31   ar
    83    33    35   ar
    84    30    27    1
    85    30    31    1
    86    27    28    1
    87     8     6   am
    88    90    89    1
    89    31    32   ar
    90     4     3    2
    91    35    34   ar
    92    82    81    2
    93    46    45   ar
    94    46    44   ar
    95    45    43   ar
    96     6     5    1
    97     6     7    2
    98    44    42   ar
    99    28    29    2
   100     3     2    1
   101     3     9   am
   102    81    88   am
   103    81    80    1
   104     5     2    1
   105    32    34   ar
   106     2     1    1
   107    89    88    1
   108    89    92    1
   109    43    41   ar
   110    93    92    1
   111    86    85   ar
   112    80    79    1
   113    80    83    1
   114    42    41   ar
   115     9    10    1
   116    92    94    1
   117    11    10    1
   118    11    12    2
   119    10    13    1
   120    41    40    1
   121    87    85   ar
   122    85    84    1
   123    83    84    1
   124    14    13    1
   125    40    37    1
   126   168   166    1
   127    68    67    2
   128    37    36    1
   129    37    38    1
   130   166   165    1
   131   167   165    1
   132    67    66    1
   133   165   162    1
   134    64    62   am
   135    55    53    1
   136    63    62    2
   137    38    39    2
   138    38    48   am
   139    53    52    1
   140    62    61    1
   141    48    49    1
   142    66    65    1
   143    66    69    1
   144   161   162    1
   145   162   163    1
   146    61    60    1
   147   175   174    1
   148    77    75   ar
   149    77    78   ar
   150    75    72   ar
   151    49    52    1
   152    49    50    1
   153   163   164    2
   154    52    54    1
   155    69    70    1
   156    78    76   ar
   157    72    70   ar
   158    72    74   ar
   159    60    57    1
   160   174   176    1
   161   174   173    1
   162    70    71   ar
   163    50    51    2
   164    57    56    1
   165    57    58    1
   166    76    74   ar
   167    74    73   ar
   168   173   170    1
   169    71    73   ar
   170    58    59    2
   171   170   169    1
   172   170   171    1
   173   171   172    2
