@<TRIPOS>MOLECULE
tmp/2bpmA00.pdb
 159 152 0 0 0
SMALL
GASTEIGER

@<TRIPOS>ATOM
      1  N         -2.9760  196.1520  109.1160 N.3    12  GLU12      -0.1231
      2  CA        -2.6410  196.1490  110.5400 C.3    12  GLU12       0.1699
      3  C         -3.8610  196.4520  111.4210 C.2    12  GLU12       0.2592
      4  O         -4.8490  197.0430  110.9670 O.2    12  GLU12      -0.2718
      5  CB        -1.5210  197.1610  110.8350 C.3    12  GLU12       0.0402
      6  CG        -1.7970  198.5410  110.2760 C.3    12  GLU12       0.1161
      7  CD        -0.6400  199.5180  110.4410 C.2    12  GLU12       0.3649
      8  OE1        0.2700  199.2660  111.2670 O.co2  12  GLU12      -0.2457
      9  OE2       -0.6570  200.5550  109.7370 O.co2  12  GLU12      -0.2457
     10  N         -3.7950  196.0250  112.6780 N.am   13  LYS13      -0.1966
     11  CA        -4.8800  196.2800  113.6110 C.3    13  LYS13       0.1728
     12  C         -4.8340  197.7790  113.9150 C.2    13  LYS13       0.2616
     13  O         -3.7650  198.3210  114.1820 O.2    13  LYS13      -0.2715
     14  CB        -4.6770  195.4600  114.8890 C.3    13  LYS13       0.0311
     15  CG        -5.8700  195.4550  115.8350 C.3    13  LYS13       0.0038
     16  CD        -5.7490  194.3630  116.9010 C.3    13  LYS13       0.0206
     17  CE        -4.6920  194.6830  117.9530 C.3    13  LYS13       0.1093
     18  NZ        -5.0930  195.8300  118.8250 N.3    13  LYS13      -0.1314
     19  N         -5.9700  198.4620  113.8330 N.am   14  ILE14      -0.1977
     20  CA        -5.9690  199.8840  114.1360 C.3    14  ILE14       0.1596
     21  C         -6.8460  200.2160  115.3400 C.2    14  ILE14       0.2287
     22  O         -6.8940  201.3640  115.7850 O.2    14  ILE14      -0.2864
     23  CB        -6.4180  200.7580  112.9200 C.3    14  ILE14       0.0276
     24  CG1       -7.8490  200.4470  112.5070 C.3    14  ILE14       0.0022
     25  CG2       -5.4750  200.5380  111.7450 C.3    14  ILE14       0.0022
     26  CD1       -8.3350  201.3550  111.3760 C.3    14  ILE14       0.0001
     27  N        -10.8810  196.1050  114.7630 N.3    22  VAL22      -0.1245
     28  CA       -10.8920  196.8550  113.5130 C.3    22  VAL22       0.1561
     29  C         -9.5120  196.7910  112.8590 C.2    22  VAL22       0.2260
     30  O         -8.4870  196.9970  113.5150 O.2    22  VAL22      -0.2867
     31  CB       -11.2540  198.3400  113.7430 C.3    22  VAL22       0.0252
     32  CG1      -11.4120  199.0480  112.4020 C.3    22  VAL22       0.0019
     33  CG2      -12.5290  198.4470  114.5640 C.3    22  VAL22       0.0019
     34  N         -6.9940  197.8720  109.3690 N.3    24  LYS24      -0.1245
     35  CA        -6.8090  198.7000  108.1900 C.3    24  LYS24       0.1561
     36  C         -6.5470  197.6040  107.1630 C.2    24  LYS24       0.2260
     37  O         -5.8060  196.6550  107.4360 O.2    24  LYS24      -0.2867
     38  CB        -5.5810  199.5900  108.3150 C.3    24  LYS24       0.0271
     39  CG        -5.3460  200.4550  107.0940 C.3    24  LYS24       0.0035
     40  CD        -4.0970  201.2930  107.2740 C.3    24  LYS24       0.0206
     41  CE        -3.8660  202.2130  106.0900 C.3    24  LYS24       0.1093
     42  NZ        -2.7000  203.1070  106.3340 N.3    24  LYS24      -0.1314
     43  N        -11.3000  200.1920  106.2050 N.3    35  ALA35      -0.1245
     44  CA       -11.2520  199.8390  107.6150 C.3    35  ALA35       0.1562
     45  C        -12.2830  198.7300  107.8100 C.2    35  ALA35       0.2260
     46  O        -13.4640  198.9160  107.5260 O.2    35  ALA35      -0.2867
     47  CB       -11.5850  201.0520  108.4840 C.3    35  ALA35       0.0290
     48  N        -14.3180  196.3540  110.2600 N.3    37  LYS37      -0.1245
     49  CA       -14.7570  196.1410  111.6310 C.3    37  LYS37       0.1561
     50  C        -15.1700  194.6770  111.6550 C.2    37  LYS37       0.2260
     51  O        -16.0190  194.2510  110.8710 O.2    37  LYS37      -0.2867
     52  CB       -15.9380  197.0500  111.9810 C.3    37  LYS37       0.0271
     53  CG       -16.2930  197.0380  113.4590 C.3    37  LYS37       0.0035
     54  CD       -16.3520  198.4530  114.0450 C.3    37  LYS37       0.0206
     55  CE       -17.6310  199.2080  113.6750 C.3    37  LYS37       0.1093
     56  NZ       -17.7120  200.5660  114.3140 N.3    37  LYS37      -0.1314
     57  N        -19.0060  208.9920  108.3720 N.3    68  VAL68      -0.1245
     58  CA       -18.1910  207.8750  107.9130 C.3    68  VAL68       0.1561
     59  C        -19.0260  206.9810  107.0110 C.2    68  VAL68       0.2260
     60  O        -20.1780  206.6720  107.3170 O.2    68  VAL68      -0.2867
     61  CB       -17.6390  207.0290  109.0760 C.3    68  VAL68       0.0252
     62  CG1      -18.7820  206.2500  109.7710 C.3    68  VAL68       0.0019
     63  CG2      -16.5760  206.0590  108.5330 C.3    68  VAL68       0.0019
     64  N        -15.6490  199.9510  106.0070 N.3    84  PHE84      -0.1227
     65  CA       -15.7960  201.4030  105.9850 C.3    84  PHE84       0.1736
     66  C        -14.6940  202.0790  105.1810 C.2    84  PHE84       0.2595
     67  O        -13.6790  201.4660  104.8660 O.2    84  PHE84      -0.2718
     68  CB       -15.6950  201.9890  107.3990 C.3    84  PHE84       0.0547
     69  CG       -16.7400  201.5030  108.3670 C.ar   84  PHE84      -0.0202
     70  CD1      -16.6080  200.2750  109.0010 C.ar   84  PHE84      -0.0042
     71  CD2      -17.8290  202.3120  108.6940 C.ar   84  PHE84      -0.0042
     72  CE1      -17.5410  199.8640  109.9510 C.ar   84  PHE84      -0.0003
     73  CE2      -18.7700  201.9040  109.6440 C.ar   84  PHE84      -0.0003
     74  CZ       -18.6250  200.6860  110.2710 C.ar   84  PHE84      -0.0000
     75  N        -14.8860  203.3570  104.8720 N.am   85  GLU85      -0.1965
     76  CA       -13.8440  204.1000  104.2040 C.3    85  GLU85       0.1733
     77  C        -12.7920  204.2520  105.3110 C.2    85  GLU85       0.2616
     78  O        -13.1040  204.1200  106.5100 O.2    85  GLU85      -0.2715
     79  CB       -14.3420  205.4780  103.7780 C.3    85  GLU85       0.0429
     80  CG       -15.0540  206.2560  104.8730 C.3    85  GLU85       0.1163
     81  CD       -15.4160  207.6720  104.4440 C.2    85  GLU85       0.3649
     82  OE1      -14.6550  208.2940  103.6730 O.co2  85  GLU85      -0.2457
     83  OE2      -16.4630  208.1810  104.8870 O.co2  85  GLU85      -0.2457
     84  N        -11.5490  204.5180  104.9310 N.am   86  PHE86      -0.1960
     85  CA       -10.5120  204.6790  105.9280 C.3    86  PHE86       0.1771
     86  C        -10.1130  206.1450  106.0770 C.2    86  PHE86       0.2619
     87  O        -10.0340  206.8800  105.0980 O.2    86  PHE86      -0.2715
     88  CB        -9.2860  203.8250  105.5620 C.3    86  PHE86       0.0574
     89  CG        -8.0690  204.1210  106.4000 C.ar   86  PHE86      -0.0200
     90  CD1       -7.1750  205.1240  106.0230 C.ar   86  PHE86      -0.0042
     91  CD2       -7.8350  203.4220  107.5840 C.ar   86  PHE86      -0.0042
     92  CE1       -6.0620  205.4300  106.8130 C.ar   86  PHE86      -0.0003
     93  CE2       -6.7150  203.7230  108.3880 C.ar   86  PHE86      -0.0003
     94  CZ        -5.8300  204.7300  107.9960 C.ar   86  PHE86      -0.0000
     95  N         -9.8980  206.5640  107.3160 N.am   87  LEU87      -0.1963
     96  CA        -9.4570  207.9230  107.6060 C.3    87  LEU87       0.1728
     97  C         -8.2390  207.7900  108.5250 C.2    87  LEU87       0.2616
     98  O         -8.1710  206.8790  109.3540 O.2    87  LEU87      -0.2715
     99  CB       -10.5810  208.7480  108.2480 C.3    87  LEU87       0.0311
    100  CG       -11.5520  209.3430  107.2100 C.3    87  LEU87       0.0022
    101  CD1      -12.8480  208.5590  107.2010 C.3    87  LEU87       0.0001
    102  CD2      -11.8350  210.8150  107.5530 C.3    87  LEU87       0.0001
    103  N         -7.2760  208.6920  108.3690 N.am   88  HIS88      -0.1959
    104  CA        -6.0230  208.6230  109.1260 C.3    88  HIS88       0.1787
    105  C         -5.9980  208.8400  110.6270 C.2    88  HIS88       0.2620
    106  O         -5.1930  208.2220  111.3150 O.2    88  HIS88      -0.2715
    107  CB        -4.9970  209.5860  108.5330 C.3    88  HIS88       0.0785
    108  CG        -4.9920  209.6200  107.0400 C.ar   88  HIS88       0.0821
    109  ND1       -5.9370  210.3120  106.3090 N.ar   88  HIS88      -0.2267
    110  CD2       -4.1610  209.0440  106.1380 C.ar   88  HIS88       0.1154
    111  CE1       -5.6870  210.1620  105.0210 C.ar   88  HIS88       0.1986
    112  NE2       -4.6150  209.3970  104.8900 N.ar   88  HIS88      -0.2212
    113  N         -6.8740  209.6940  111.1440 N.am   89  GLN89      -0.1963
    114  CA        -6.8110  210.0260  112.5570 C.3    89  GLN89       0.1733
    115  C         -8.1660  210.3560  113.1730 C.2    89  GLN89       0.2616
    116  O         -9.1340  210.5950  112.4540 O.2    89  GLN89      -0.2715
    117  CB        -5.8820  211.2400  112.6720 C.3    89  GLN89       0.0408
    118  CG        -5.6480  211.7780  114.0410 C.3    89  GLN89       0.0908
    119  CD        -4.7930  210.8620  114.8490 C.2    89  GLN89       0.2608
    120  OE1       -5.1980  209.7490  115.1800 O.2    89  GLN89      -0.2717
    121  NE2       -3.5830  211.3110  115.1610 N.am   89  GLN89      -0.0878
    122  N         -8.2400  210.3490  114.5030 N.am   90  ASP90      -0.1971
    123  CA        -9.4790  210.7410  115.1810 C.3    90  ASP90       0.1709
    124  C         -9.1970  212.0490  115.9340 C.2    90  ASP90       0.2293
    125  O         -8.0490  212.3470  116.2630 O.2    90  ASP90      -0.2864
    126  CB       -10.0260  209.6360  116.1050 C.3    90  ASP90       0.1436
    127  CG        -9.1990  209.4170  117.3600 C.2    90  ASP90       0.3671
    128  OD1       -8.9110  210.3890  118.0940 O.co2  90  ASP90      -0.2456
    129  OD2       -8.8650  208.2430  117.6370 O.co2  90  ASP90      -0.2456
    130  N         -6.9630  212.1160  119.3560 N.3    93  LYS93      -0.1245
    131  CA        -5.5120  212.0160  119.2110 C.3    93  LYS93       0.1561
    132  C         -4.9560  213.2980  118.5940 C.2    93  LYS93       0.2260
    133  O         -3.8510  213.7320  118.9200 O.2    93  LYS93      -0.2867
    134  CB        -5.1610  210.7850  118.3760 C.3    93  LYS93       0.0271
    135  CG        -5.5450  209.4990  119.0900 C.3    93  LYS93       0.0035
    136  CD        -5.3660  208.2630  118.2290 C.3    93  LYS93       0.0206
    137  CE        -5.8140  207.0110  118.9830 C.3    93  LYS93       0.1093
    138  NZ        -5.8420  205.8050  118.1070 N.3    93  LYS93      -0.1314
    139  N        -13.6530  211.2110  112.9900 N.3   138  LEU138     -0.1245
    140  CA       -12.5040  210.8990  112.1470 C.3   138  LEU138      0.1561
    141  C        -12.0630  212.0620  111.2610 C.2   138  LEU138      0.2260
    142  O        -12.8880  212.8290  110.7700 O.2   138  LEU138     -0.2867
    143  CB       -12.8180  209.6730  111.2860 C.3   138  LEU138      0.0270
    144  CG       -13.0510  208.3540  112.0390 C.3   138  LEU138      0.0019
    145  CD1      -13.5270  207.2690  111.0800 C.3   138  LEU138      0.0001
    146  CD2      -11.7750  207.9240  112.7410 C.3   138  LEU138      0.0001
    147  N        -18.4950  209.2810  113.3010 N.3   148  ALA148     -0.1231
    148  CA       -18.2910  207.8470  113.2420 C.3   148  ALA148      0.1694
    149  C        -18.7990  207.1950  114.5210 C.2   148  ALA148      0.2592
    150  O        -19.2320  207.8800  115.4630 O.2   148  ALA148     -0.2718
    151  CB       -16.8140  207.5390  113.0390 C.3   148  ALA148      0.0304
    152  N        -18.7350  205.8670  114.5410 N.am  149  ASP149     -0.1974
    153  CA       -19.1820  205.0540  115.6640 C.3   149  ASP149      0.1709
    154  C        -20.6650  205.2720  115.9930 C.2   149  ASP149      0.2293
    155  O        -21.0200  206.0160  116.9150 O.2   149  ASP149     -0.2864
    156  CB       -18.3370  205.3140  116.9130 C.3   149  ASP149      0.1436
    157  CG       -18.4410  204.1730  117.9240 C.2   149  ASP149      0.3671
    158  OD1      -19.3860  203.3560  117.8150 O.co2 149  ASP149     -0.2456
    159  OD2      -17.5890  204.0860  118.8280 O.co2 149  ASP149     -0.2456
@<TRIPOS>BOND
     1    82    81   ar
     2    79    76    1
     3    79    80    1
     4    76    75    1
     5    76    77    1
     6    81    80    1
     7    81    83   ar
     8    67    66    2
     9    75    66   am
    10   112   111   ar
    11   112   110   ar
    12    84    77   am
    13    84    85    1
    14   111   109   ar
    15    87    86    2
    16    66    65    1
    17    77    78    2
    18    88    85    1
    19    88    89    1
    20    85    86    1
    21    65    64    1
    22    65    68    1
    23    90    89   ar
    24    90    92   ar
    25    86    95   am
    26    41    42    1
    27    41    40    1
    28   110   108   ar
    29    43    44    1
    30   109   108   ar
    31    89    91   ar
    32    92    94   ar
    33    59    60    2
    34    59    58    1
    35   108   107    1
    36    39    40    1
    37    39    38    1
    38    36    37    2
    39    36    35    1
    40   101   100    1
    41   100   102    1
    42   100    99    1
    43    95    96    1
    44    68    69    1
    45    46    45    2
    46    91    93   ar
    47    96    99    1
    48    96    97    1
    49    44    45    1
    50    44    47    1
    51    58    57    1
    52    58    61    1
    53    94    93   ar
    54    35    38    1
    55    35    34    1
    56    69    71   ar
    57    69    70   ar
    58   103    97   am
    59   103   104    1
    60    97    98    2
    61   107   104    1
    62    63    61    1
    63    71    73   ar
    64    70    72   ar
    65    61    62    1
    66     1     2    1
    67   104   105    1
    68    73    74   ar
    69     9     7   ar
    70    72    74   ar
    71    48    49    1
    72     6     7    1
    73     6     5    1
    74     7     8   ar
    75     2     5    1
    76     2     3    1
    77   105   113   am
    78   105   106    2
    79   142   141    2
    80    51    50    2
    81     4     3    2
    82   145   144    1
    83   113   114    1
    84   141   140    1
    85   143   144    1
    86   143   140    1
    87    26    24    1
    88     3    10   am
    89    49    50    1
    90    49    52    1
    91    25    23    1
    92    52    53    1
    93   144   146    1
    94   140   139    1
    95    32    31    1
    96   116   115    2
    97    24    23    1
    98   114   117    1
    99   114   115    1
   100   117   118    1
   101    10    11    1
   102    29    28    1
   103    29    30    2
   104    23    20    1
   105   151   148    1
   106   115   122   am
   107   148   147    1
   108   148   149    1
   109    53    54    1
   110    28    31    1
   111    28    27    1
   112    11    12    1
   113    11    14    1
   114    55    54    1
   115    55    56    1
   116    31    33    1
   117    19    12   am
   118    19    20    1
   119    12    13    2
   120   118   119    1
   121    20    21    1
   122   122   123    1
   123   149   152   am
   124   149   150    2
   125   152   153    1
   126   119   121   am
   127   119   120    2
   128    14    15    1
   129   123   124    1
   130   123   126    1
   131    21    22    2
   132   153   154    1
   133   153   156    1
   134    15    16    1
   135   124   125    2
   136   154   155    2
   137   126   127    1
   138    16    17    1
   139   156   157    1
   140   127   129   ar
   141   127   128   ar
   142   158   157   ar
   143   157   159   ar
   144    17    18    1
   145   138   137    1
   146   136   137    1
   147   136   135    1
   148   134   135    1
   149   134   131    1
   150   132   133    2
   151   132   131    1
   152   131   130    1
