@<TRIPOS>MOLECULE
tmp/2bpqB00.pdb
 86 83 0 0 0
SMALL
GASTEIGER

@<TRIPOS>ATOM
      1  N         -7.7640  -20.5200  -34.3300 N.3    45  MET45      -0.1230
      2  CA        -7.3990  -21.2990  -35.5290 C.3    45  MET45       0.1702
      3  C         -5.9620  -21.8730  -35.4930 C.2    45  MET45       0.2593
      4  O         -5.6100  -22.7470  -36.3100 O.2    45  MET45      -0.2718
      5  CB        -7.6250  -20.4810  -36.7920 C.3    45  MET45       0.0401
      6  CG        -9.1080  -20.2130  -37.0980 C.3    45  MET45       0.0596
      7  SD       -10.1590  -21.6840  -37.3170 S.3    45  MET45      -0.1393
      8  CE        -9.6470  -22.1450  -39.0000 C.3    45  MET45       0.0692
      9  N         -5.1690  -21.3790  -34.5390 N.am   46  THR46      -0.1939
     10  CA        -3.8060  -21.8560  -34.2490 C.3    46  THR46       0.2028
     11  C         -3.8570  -22.9840  -33.2420 C.2    46  THR46       0.2642
     12  O         -3.0420  -23.8910  -33.3010 O.2    46  THR46      -0.2714
     13  CB        -2.9260  -20.7370  -33.6860 C.3    46  THR46       0.1808
     14  OG1       -2.9410  -19.6220  -34.5880 O.3    46  THR46      -0.2208
     15  CG2       -1.4710  -21.2190  -33.5040 C.3    46  THR46       0.0379
     16  N         -4.8390  -22.9430  -32.3370 N.am   47  MET47      -0.1962
     17  CA        -5.0140  -24.0070  -31.3490 C.3    47  MET47       0.1736
     18  C         -5.6650  -25.2720  -31.9070 C.2    47  MET47       0.2616
     19  O         -5.3320  -26.3790  -31.5050 O.2    47  MET47      -0.2715
     20  CB        -5.8180  -23.4820  -30.1470 C.3    47  MET47       0.0427
     21  CG        -5.0290  -22.4830  -29.2310 C.3    47  MET47       0.0599
     22  SD        -6.0900  -21.7090  -27.9620 S.3    47  MET47      -0.1393
     23  CE        -6.5560  -23.1700  -27.0730 C.3    47  MET47       0.0692
     24  N         -6.6240  -25.0970  -32.8040 N.am   48  LYS48      -0.1963
     25  CA        -7.3880  -26.2020  -33.3170 C.3    48  LYS48       0.1728
     26  C         -6.5440  -26.9110  -34.3940 C.2    48  LYS48       0.2616
     27  O         -5.8140  -26.2590  -35.1170 O.2    48  LYS48      -0.2715
     28  CB        -8.7020  -25.6680  -33.9080 C.3    48  LYS48       0.0311
     29  CG        -9.6240  -26.7640  -34.4020 C.3    48  LYS48       0.0038
     30  CD       -10.8800  -26.2000  -35.0830 C.3    48  LYS48       0.0206
     31  CE       -10.5910  -25.6990  -36.4840 C.3    48  LYS48       0.1093
     32  NZ       -10.2970  -26.8830  -37.3640 N.3    48  LYS48      -0.1314
     33  N         -6.6340  -28.2430  -34.4620 N.am   49  ALA49      -0.1964
     34  CA        -5.9150  -29.0170  -35.4760 C.3    49  ALA49       0.1713
     35  C         -6.3210  -28.4870  -36.8670 C.2    49  ALA49       0.2458
     36  O         -7.4900  -28.2140  -37.0910 O.2    49  ALA49      -0.2730
     37  CB        -6.2430  -30.5250  -35.3420 C.3    49  ALA49       0.0333
     38  N         -5.3530  -28.3020  -37.7890 N.am   50  PRO50      -0.2727
     39  CA        -5.7660  -27.7250  -39.0910 C.3    50  PRO50       0.1402
     40  C         -6.5160  -28.7110  -39.9900 C.2    50  PRO50       0.2269
     41  O         -6.3330  -29.9390  -39.8750 O.2    50  PRO50      -0.2865
     42  CB        -4.4280  -27.3340  -39.7450 C.3    50  PRO50       0.0296
     43  CG        -3.3930  -28.3470  -39.1380 C.3    50  PRO50       0.0237
     44  CD        -3.8920  -28.5300  -37.6940 C.3    50  PRO50       0.0939
     45  N         -1.3700  -19.2360  -36.8870 N.3   168  VAL168     -0.1245
     46  CA        -1.5260  -19.9060  -38.1790 C.3   168  VAL168      0.1561
     47  C         -1.4140  -18.9680  -39.3960 C.2   168  VAL168      0.2260
     48  O         -0.9700  -19.4090  -40.4660 O.2   168  VAL168     -0.2867
     49  CB        -2.8660  -20.7190  -38.2660 C.3   168  VAL168      0.0252
     50  CG1       -4.0890  -19.7870  -38.3270 C.3   168  VAL168      0.0019
     51  CG2       -2.8030  -21.7030  -39.4390 C.3   168  VAL168      0.0019
     52  N          1.8020  -18.9180  -41.0300 N.3   171  LEU171     -0.1245
     53  CA         2.2840  -20.1690  -41.6180 C.3   171  LEU171      0.1561
     54  C          1.7280  -20.4610  -43.0170 C.2   171  LEU171      0.2260
     55  O          2.0690  -21.4790  -43.6110 O.2   171  LEU171     -0.2867
     56  CB         2.0060  -21.3660  -40.6990 C.3   171  LEU171      0.0270
     57  CG         2.5810  -21.2840  -39.2840 C.3   171  LEU171      0.0019
     58  CD1        1.8500  -22.2970  -38.3760 C.3   171  LEU171      0.0001
     59  CD2        4.0840  -21.5060  -39.3080 C.3   171  LEU171      0.0001
     60  N          5.8390  -28.2250  -39.1250 N.3   190  PHE190     -0.1241
     61  CA         4.8020  -28.9580  -38.4120 C.3   190  PHE190      0.1605
     62  C          4.1980  -29.9960  -39.3250 C.2   190  PHE190      0.2264
     63  O          3.5800  -29.6440  -40.3390 O.2   190  PHE190     -0.2867
     64  CB         3.7180  -28.0030  -37.9050 C.3   190  PHE190      0.0534
     65  CG         4.2650  -26.8000  -37.1940 C.ar  190  PHE190     -0.0203
     66  CD1        4.6870  -26.8970  -35.8610 C.ar  190  PHE190     -0.0042
     67  CD2        4.3780  -25.5820  -37.8570 C.ar  190  PHE190     -0.0042
     68  CE1        5.2000  -25.7870  -35.2070 C.ar  190  PHE190     -0.0003
     69  CE2        4.8880  -24.4660  -37.2200 C.ar  190  PHE190     -0.0003
     70  CZ         5.2970  -24.5610  -35.8890 C.ar  190  PHE190     -0.0000
     71  N          1.5170  -31.8900  -39.0340 N.3   192  ASP192     -0.1225
     72  CA         0.0720  -31.8740  -39.2330 C.3   192  ASP192      0.1805
     73  C         -0.2970  -30.8520  -40.2950 C.2   192  ASP192      0.2597
     74  O         -1.1050  -31.1390  -41.1760 O.2   192  ASP192     -0.2718
     75  CB        -0.7220  -31.6360  -37.9220 C.3   192  ASP192      0.1424
     76  CG        -0.2670  -30.4150  -37.1400 C.2   192  ASP192      0.3668
     77  OD1        0.7700  -29.7540  -37.4460 O.co2 192  ASP192     -0.2456
     78  OD2       -0.9770  -30.0900  -36.1650 O.co2 192  ASP192     -0.2456
     79  N          0.3220  -29.6790  -40.2230 N.am  193  LEU193     -0.1979
     80  CA         0.0590  -28.6410  -41.2260 C.3   193  LEU193      0.1596
     81  C          0.6950  -28.9920  -42.5840 C.2   193  LEU193      0.2287
     82  O          0.1310  -28.6740  -43.6220 O.2   193  LEU193     -0.2864
     83  CB         0.4710  -27.2460  -40.7360 C.3   193  LEU193      0.0297
     84  CG         0.2500  -26.0680  -41.7280 C.3   193  LEU193      0.0022
     85  CD1       -1.2300  -25.8680  -42.1410 C.3   193  LEU193      0.0001
     86  CD2        0.8970  -24.7830  -41.1870 C.3   193  LEU193      0.0001
@<TRIPOS>BOND
     1    82    81    2
     2    55    54    2
     3    54    53    1
     4    81    80    1
     5    85    84    1
     6    84    86    1
     7    84    83    1
     8    53    52    1
     9    53    56    1
    10    80    83    1
    11    80    79    1
    12    74    73    2
    13    56    57    1
    14    48    47    2
    15    63    62    2
    16    73    79   am
    17    73    72    1
    18    40    41    2
    19    40    39    1
    20    42    43    1
    21    42    39    1
    22    51    49    1
    23    47    46    1
    24    62    61    1
    25    59    57    1
    26    57    58    1
    27    72    71    1
    28    72    75    1
    29    43    44    1
    30    60    61    1
    31    39    38    1
    32     8     7    1
    33    61    64    1
    34    50    49    1
    35    49    46    1
    36    46    45    1
    37    75    76    1
    38    64    65    1
    39    67    69   ar
    40    67    65   ar
    41    38    44    1
    42    38    35   am
    43    77    76   ar
    44    32    31    1
    45     7     6    1
    46    69    70   ar
    47    65    66   ar
    48    76    78   ar
    49     6     5    1
    50    36    35    2
    51    35    34    1
    52     5     2    1
    53    31    30    1
    54     4     3    2
    55    70    68   ar
    56    66    68   ar
    57     2     3    1
    58     2     1    1
    59     3     9   am
    60    34    37    1
    61    34    33    1
    62    27    26    2
    63    30    29    1
    64    14    13    1
    65     9    10    1
    66    33    26   am
    67    29    28    1
    68    26    25    1
    69    10    13    1
    70    10    11    1
    71    28    25    1
    72    13    15    1
    73    25    24    1
    74    12    11    2
    75    11    16   am
    76    24    18   am
    77    16    17    1
    78    18    19    2
    79    18    17    1
    80    17    20    1
    81    20    21    1
    82    21    22    1
    83    22    23    1
