@<TRIPOS>MOLECULE
tmp/2bpwB00.pdb
 105 98 0 0 0
SMALL
GASTEIGER

@<TRIPOS>ATOM
      1  N          9.3820   35.0600   -1.8740 N.3     8  ARG8       -0.1245
      2  CA         9.9560   33.7190   -1.8450 C.3     8  ARG8        0.1563
      3  C         10.8300   33.5950   -3.0900 C.2     8  ARG8        0.2260
      4  O         10.3880   33.9370   -4.1880 O.2     8  ARG8       -0.2867
      5  CB         8.8220   32.6900   -1.8890 C.3     8  ARG8        0.0307
      6  CG         9.0420   31.4610   -1.0470 C.3     8  ARG8        0.0489
      7  CD         7.8150   30.5740   -1.0100 C.3     8  ARG8        0.2205
      8  NE         6.7450   31.0870   -0.1600 N.pl3   8  ARG8       -0.0865
      9  CZ         5.6910   30.3650    0.2160 C.cat   8  ARG8        0.5346
     10  NH1        5.5700   29.1070   -0.1890 N.pl3   8  ARG8        0.1354
     11  NH2        4.7500   30.8930    0.9910 N.pl3   8  ARG8        0.1354
     12  N         12.5490   26.3220   -5.3660 N.3    23  LEU23      -0.1245
     13  CA        12.9460   27.2300   -4.3070 C.3    23  LEU23       0.1561
     14  C         14.4500   27.1890   -4.0710 C.2    23  LEU23       0.2260
     15  O         15.0340   26.1120   -3.9360 O.2    23  LEU23      -0.2867
     16  CB        12.2330   26.8290   -3.0170 C.3    23  LEU23       0.0270
     17  CG        12.4380   27.7460   -1.8140 C.3    23  LEU23       0.0019
     18  CD1       11.7500   29.0810   -2.0410 C.3    23  LEU23       0.0001
     19  CD2       11.8660   27.0600   -0.5860 C.3    23  LEU23       0.0001
     20  N         16.8850   27.1340   -1.7650 N.3    25  ASP25      -0.1239
     21  CA        16.9320   26.8550   -0.3370 C.3    25  ASP25       0.1674
     22  C         18.3460   26.6680    0.2210 C.2    25  ASP25       0.2266
     23  O         18.9400   25.6040    0.0660 O.2    25  ASP25      -0.2867
     24  CB        16.1060   25.5830   -0.0910 C.3    25  ASP25       0.1410
     25  CG        15.4320   25.5730    1.2520 C.2    25  ASP25       0.3668
     26  OD1       15.9750   26.1710    2.1940 O.co2  25  ASP25      -0.2456
     27  OD2       14.3540   24.9560    1.3660 O.co2  25  ASP25      -0.2456
     28  N         19.0140   26.5080    3.3370 N.3    27  GLY27      -0.1210
     29  CA        18.8950   25.7140    4.5420 C.3    27  GLY27       0.1956
     30  C         18.6470   24.2620    4.2230 C.2    27  GLY27       0.2612
     31  O         18.3480   23.4710    5.1190 O.2    27  GLY27      -0.2717
     32  N         18.7110   23.9250    2.9380 N.am   28  ALA28      -0.1965
     33  CA        18.5130   22.5570    2.4960 C.3    28  ALA28       0.1728
     34  C         19.8540   22.0150    2.0220 C.2    28  ALA28       0.2616
     35  O         20.5060   22.6210    1.1750 O.2    28  ALA28      -0.2715
     36  CB        17.4950   22.5040    1.3750 C.3    28  ALA28       0.0334
     37  N         20.2800   20.8980    2.6000 N.am   29  ASP29      -0.1957
     38  CA        21.5450   20.2790    2.2180 C.3    29  ASP29       0.1840
     39  C         21.4270   19.6170    0.8470 C.2    29  ASP29       0.2622
     40  O         22.3330   19.7160    0.0170 O.2    29  ASP29      -0.2715
     41  CB        21.9350   19.2200    3.2460 C.3    29  ASP29       0.1450
     42  CG        21.9880   19.7680    4.6500 C.2    29  ASP29       0.3671
     43  OD1       22.8530   20.6100    4.9270 O.co2  29  ASP29      -0.2456
     44  OD2       21.1770   19.3360    5.4860 O.co2  29  ASP29      -0.2456
     45  N         20.2910   18.9640    0.6200 N.am   30  ASP30      -0.1971
     46  CA        20.0220   18.2470   -0.6130 C.3    30  ASP30       0.1709
     47  C         18.9470   18.8980   -1.4490 C.2    30  ASP30       0.2293
     48  O         18.0880   19.6220   -0.9350 O.2    30  ASP30      -0.2864
     49  CB        19.5320   16.8350   -0.2870 C.3    30  ASP30       0.1436
     50  CG        20.4100   16.1200    0.7160 C.2    30  ASP30       0.3671
     51  OD1       21.5590   15.7740    0.3690 O.co2  30  ASP30      -0.2456
     52  OD2       19.9370   15.9010    1.8540 O.co2  30  ASP30      -0.2456
     53  N         15.6030   18.4440   -3.4180 N.3    32  VAL32      -0.1245
     54  CA        14.4830   17.5160   -3.3770 C.3    32  VAL32       0.1561
     55  C         13.3510   17.9830   -4.2850 C.2    32  VAL32       0.2260
     56  O         12.7330   19.0150   -4.0350 O.2    32  VAL32      -0.2867
     57  CB        13.9480   17.3640   -1.9460 C.3    32  VAL32       0.0252
     58  CG1       12.8370   16.3410   -1.9010 C.3    32  VAL32       0.0019
     59  CG2       15.0740   16.9930   -0.9940 C.3    32  VAL32       0.0019
     60  N         15.4510   11.5800    4.6240 N.3    47  ILE47      -0.1231
     61  CA        15.8570   12.9400    4.9340 C.3    47  ILE47       0.1692
     62  C         14.9040   13.4990    5.9790 C.2    47  ILE47       0.2593
     63  O         13.7240   13.1350    6.0160 O.2    47  ILE47      -0.2718
     64  CB        15.9030   13.8370    3.6830 C.3    47  ILE47       0.0266
     65  CG1       14.5900   13.8200    2.9060 C.3    47  ILE47       0.0019
     66  CG2       17.0730   13.4270    2.7890 C.3    47  ILE47       0.0020
     67  CD1       14.5970   14.7520    1.7270 C.3    47  ILE47       0.0001
     68  N         15.4450   14.3070    6.8820 N.am   48  GLY48      -0.1942
     69  CA        14.6360   14.9030    7.9270 C.3    48  GLY48       0.2014
     70  C         14.4300   16.3900    7.7400 C.2    48  GLY48       0.2639
     71  O         15.3790   17.1310    7.4970 O.2    48  GLY48      -0.2714
     72  N         13.1820   16.8220    7.8210 N.am   49  GLY49      -0.1939
     73  CA        12.8660   18.2260    7.6760 C.3    49  GLY49       0.2014
     74  C         12.3780   18.7580    9.0020 C.2    49  GLY49       0.2638
     75  O         12.7670   18.2670   10.0580 O.2    49  GLY49      -0.2714
     76  N         11.4670   19.7160    8.9530 N.am   50  ILE50      -0.1977
     77  CA        10.9390   20.3090   10.1730 C.3    50  ILE50       0.1596
     78  C          9.9920   19.3710   10.9200 C.2    50  ILE50       0.2287
     79  O          9.9460   19.3690   12.1560 O.2    50  ILE50      -0.2864
     80  CB        10.2510   21.6470    9.8870 C.3    50  ILE50       0.0276
     81  CG1       10.4290   22.5580   11.1000 C.3    50  ILE50       0.0022
     82  CG2        8.7850   21.4340    9.4890 C.3    50  ILE50       0.0022
     83  CD1       11.8900   22.8310   11.4120 C.3    50  ILE50       0.0001
     84  N          6.9010   19.6820   -0.2160 N.3    81  PRO81      -0.2102
     85  CA         5.9110   20.7430   -0.4490 C.3    81  PRO81       0.1504
     86  C          6.0980   21.4420   -1.7950 C.2    81  PRO81       0.2575
     87  O          5.1230   21.7140   -2.4920 O.2    81  PRO81      -0.2718
     88  CB         6.1470   21.6950    0.7220 C.3    81  PRO81       0.0282
     89  CG         6.6110   20.7700    1.8120 C.3    81  PRO81       0.0208
     90  CD         7.6000   19.9040    1.0610 C.3    81  PRO81       0.0893
     91  N          7.3540   21.7190   -2.1620 N.am   82  VAL82      -0.1980
     92  CA         7.6860   22.3770   -3.4270 C.3    82  VAL82       0.1595
     93  C          9.0060   21.7830   -3.8970 C.2    82  VAL82       0.2287
     94  O          9.6400   21.0180   -3.1630 O.2    82  VAL82      -0.2864
     95  CB         7.9110   23.9000   -3.2470 C.3    82  VAL82       0.0276
     96  CG1        6.6770   24.5750   -2.6640 C.3    82  VAL82       0.0022
     97  CG2        9.1140   24.1610   -2.3660 C.3    82  VAL82       0.0022
     98  N         12.7480   21.7750   -4.2960 N.3    84  ILE84      -0.1245
     99  CA        13.7790   22.4460   -3.5160 C.3    84  ILE84       0.1561
    100  C         15.1740   22.2890   -4.0900 C.2    84  ILE84       0.2260
    101  O         15.6010   21.1740   -4.3730 O.2    84  ILE84      -0.2867
    102  CB        13.7850   21.8970   -2.0840 C.3    84  ILE84       0.0252
    103  CG1       12.4910   22.2780   -1.3910 C.3    84  ILE84       0.0019
    104  CG2       14.9490   22.4360   -1.2940 C.3    84  ILE84       0.0019
    105  CD1       12.3070   21.5910   -0.0700 C.3    84  ILE84       0.0001
@<TRIPOS>BOND
     1    12    13    1
     2   101   100    2
     3    13    14    1
     4    13    16    1
     5    98    99    1
     6    55    56    2
     7    55    54    1
     8     4     3    2
     9   100    99    1
    10    14    15    2
    11    93    92    1
    12    93    94    2
    13    99   102    1
    14    92    95    1
    15    92    91    1
    16    53    54    1
    17    54    57    1
    18    95    96    1
    19    95    97    1
    20     3     2    1
    21    16    17    1
    22    87    86    2
    23    91    86   am
    24   102   103    1
    25   102   104    1
    26    18    17    1
    27    57    58    1
    28    57    59    1
    29     5     2    1
    30     5     6    1
    31     1     2    1
    32    17    19    1
    33    86    85    1
    34    20    21    1
    35    47    48    2
    36    47    46    1
    37   103   105    1
    38     6     7    1
    39     7     8    1
    40    46    49    1
    41    46    45    1
    42    85    84    1
    43    85    88    1
    44    21    24    1
    45    21    22    1
    46    49    50    1
    47    84    90    1
    48    10     9    1
    49     8     9    2
    50    24    25    1
    51    40    39    2
    52    23    22    2
    53     9    11    1
    54    51    50   ar
    55    45    39   am
    56    50    52   ar
    57    88    89    1
    58    39    38    1
    59    90    89    1
    60    35    34    2
    61    25    27   ar
    62    25    26   ar
    63    36    33    1
    64    67    65    1
    65    34    33    1
    66    34    37   am
    67    38    37    1
    68    38    41    1
    69    33    32    1
    70    66    64    1
    71    65    64    1
    72    32    30   am
    73    41    42    1
    74    28    29    1
    75    64    61    1
    76    30    29    1
    77    30    31    2
    78    60    61    1
    79    42    43   ar
    80    42    44   ar
    81    61    62    1
    82    62    63    2
    83    62    68   am
    84    68    69    1
    85    71    70    2
    86    73    72    1
    87    73    74    1
    88    70    72   am
    89    70    69    1
    90    76    74   am
    91    76    77    1
    92    74    75    2
    93    82    80    1
    94    80    77    1
    95    80    81    1
    96    77    78    1
    97    78    79    2
    98    81    83    1
