@<TRIPOS>MOLECULE
tmp/2bpyB00.pdb
 105 98 0 0 0
SMALL
GASTEIGER

@<TRIPOS>ATOM
      1  N          9.4660   35.0140   -1.7490 N.3     8  ARG8       -0.1245
      2  CA        10.1350   33.7140   -1.8360 C.3     8  ARG8        0.1563
      3  C         11.0150   33.6810   -3.0220 C.2     8  ARG8        0.2260
      4  O         10.6050   34.0730   -4.1140 O.2     8  ARG8       -0.2867
      5  CB         9.1030   32.5780   -1.9680 C.3     8  ARG8        0.0307
      6  CG         8.3770   32.2570   -0.7110 C.3     8  ARG8        0.0489
      7  CD         7.6130   30.9620   -0.8410 C.3     8  ARG8        0.2205
      8  NE         6.6800   30.7980    0.2660 N.pl3   8  ARG8       -0.0865
      9  CZ         5.7280   29.8720    0.3040 C.cat   8  ARG8        0.5346
     10  NH1        5.5970   29.0090   -0.6950 N.pl3   8  ARG8        0.1354
     11  NH2        4.9120   29.8020    1.3450 N.pl3   8  ARG8        0.1354
     12  N         12.4140   26.5540   -5.4310 N.3    23  LEU23      -0.1245
     13  CA        12.8650   27.4620   -4.3900 C.3    23  LEU23       0.1561
     14  C         14.3860   27.3740   -4.1000 C.2    23  LEU23       0.2260
     15  O         14.8980   26.2860   -3.8370 O.2    23  LEU23      -0.2867
     16  CB        12.1040   27.1320   -3.1130 C.3    23  LEU23       0.0270
     17  CG        12.2140   27.9200   -1.8200 C.3    23  LEU23       0.0019
     18  CD1       11.5210   29.2560   -2.0160 C.3    23  LEU23       0.0001
     19  CD2       11.5620   27.1490   -0.6790 C.3    23  LEU23       0.0001
     20  N         16.9930   27.3820   -1.7580 N.3    25  ASP25      -0.1239
     21  CA        16.9430   27.1120   -0.3320 C.3    25  ASP25       0.1674
     22  C         18.3040   26.8430    0.3090 C.2    25  ASP25       0.2266
     23  O         18.8310   25.7320    0.2490 O.2    25  ASP25      -0.2867
     24  CB        15.9780   25.8850   -0.1770 C.3    25  ASP25       0.1410
     25  CG        15.5000   25.6590    1.2270 C.2    25  ASP25       0.3668
     26  OD1       16.0850   26.1990    2.1900 O.co2  25  ASP25      -0.2456
     27  OD2       14.5190   24.9040    1.3580 O.co2  25  ASP25      -0.2456
     28  N         18.8800   26.5730    3.4460 N.3    27  GLY27      -0.1210
     29  CA        18.7220   25.7560    4.6340 C.3    27  GLY27       0.1956
     30  C         18.5390   24.2820    4.3030 C.2    27  GLY27       0.2612
     31  O         18.3290   23.4640    5.1930 O.2    27  GLY27      -0.2717
     32  N         18.5760   23.9550    3.0140 N.am   28  ALA28      -0.1965
     33  CA        18.4300   22.5800    2.5400 C.3    28  ALA28       0.1728
     34  C         19.7520   22.0660    2.0830 C.2    28  ALA28       0.2616
     35  O         20.3920   22.6660    1.2220 O.2    28  ALA28      -0.2715
     36  CB        17.4290   22.5140    1.3940 C.3    28  ALA28       0.0334
     37  N         20.2050   20.9650    2.6750 N.am   29  ASP29      -0.1957
     38  CA        21.4790   20.3620    2.2910 C.3    29  ASP29       0.1840
     39  C         21.3740   19.7470    0.9070 C.2    29  ASP29       0.2622
     40  O         22.3210   19.7860    0.1200 O.2    29  ASP29      -0.2715
     41  CB        21.8630   19.2530    3.2790 C.3    29  ASP29       0.1450
     42  CG        21.9050   19.7330    4.7040 C.2    29  ASP29       0.3671
     43  OD1       22.5840   20.7370    4.9640 O.co2  29  ASP29      -0.2456
     44  OD2       21.2540   19.1070    5.5580 O.co2  29  ASP29      -0.2456
     45  N         20.2080   19.1770    0.6150 N.am   30  ASP30      -0.1971
     46  CA        19.9630   18.4980   -0.6490 C.3    30  ASP30       0.1709
     47  C         18.8910   19.1450   -1.4830 C.2    30  ASP30       0.2293
     48  O         18.1050   19.9760   -0.9990 O.2    30  ASP30      -0.2864
     49  CB        19.5420   17.0310   -0.3750 C.3    30  ASP30       0.1436
     50  CG        20.4160   16.3470    0.6640 C.2    30  ASP30       0.3671
     51  OD1       21.6240   16.1960    0.4200 O.co2  30  ASP30      -0.2456
     52  OD2       19.8890   15.9520    1.7180 O.co2  30  ASP30      -0.2456
     53  N         15.5110   18.5560   -3.4420 N.3    32  VAL32      -0.1245
     54  CA        14.3660   17.6580   -3.4040 C.3    32  VAL32       0.1561
     55  C         13.2820   18.1360   -4.3240 C.2    32  VAL32       0.2260
     56  O         12.7710   19.2450   -4.1810 O.2    32  VAL32      -0.2867
     57  CB        13.7930   17.5460   -1.9840 C.3    32  VAL32       0.0252
     58  CG1       12.7460   16.4240   -1.9190 C.3    32  VAL32       0.0019
     59  CG2       14.9080   17.3020   -0.9740 C.3    32  VAL32       0.0019
     60  N         15.5510   11.6360    4.7570 N.3    47  ILE47      -0.1231
     61  CA        15.9170   13.0240    5.0010 C.3    47  ILE47       0.1692
     62  C         14.9530   13.6260    6.0050 C.2    47  ILE47       0.2593
     63  O         13.7610   13.3060    6.0110 O.2    47  ILE47      -0.2718
     64  CB        15.9510   13.8840    3.6810 C.3    47  ILE47       0.0266
     65  CG1       14.6030   13.8870    2.9830 C.3    47  ILE47       0.0019
     66  CG2       17.1050   13.4350    2.7930 C.3    47  ILE47       0.0020
     67  CD1       14.5080   14.8970    1.8590 C.3    47  ILE47       0.0001
     68  N         15.4860   14.4550    6.8940 N.am   48  GLY48      -0.1942
     69  CA        14.6620   15.0920    7.9030 C.3    48  GLY48       0.2014
     70  C         14.4750   16.5830    7.6810 C.2    48  GLY48       0.2639
     71  O         15.4190   17.3050    7.3570 O.2    48  GLY48      -0.2714
     72  N         13.2380   17.0340    7.8210 N.am   49  GLY49      -0.1939
     73  CA        12.9260   18.4330    7.6690 C.3    49  GLY49       0.2014
     74  C         12.4380   18.9470    8.9940 C.2    49  GLY49       0.2638
     75  O         12.8230   18.4330   10.0450 O.2    49  GLY49      -0.2714
     76  N         11.5240   19.9070    8.9450 N.am   50  ILE50      -0.1977
     77  CA        10.9790   20.5160   10.1490 C.3    50  ILE50       0.1596
     78  C          9.9990   19.6080   10.9360 C.2    50  ILE50       0.2287
     79  O         10.0090   19.6100   12.1680 O.2    50  ILE50      -0.2864
     80  CB        10.2560   21.8670    9.8030 C.3    50  ILE50       0.0276
     81  CG1       10.0080   22.6850   11.0730 C.3    50  ILE50       0.0022
     82  CG2        9.0200   21.6060    8.9610 C.3    50  ILE50       0.0022
     83  CD1       11.2630   23.2910   11.6440 C.3    50  ILE50       0.0001
     84  N          6.5500   19.8850   -0.4070 N.3    81  PRO81      -0.2102
     85  CA         5.5570   20.9280   -0.6800 C.3    81  PRO81       0.1504
     86  C          5.8640   21.7630   -1.9300 C.2    81  PRO81       0.2575
     87  O          4.9570   22.2650   -2.5920 O.2    81  PRO81      -0.2718
     88  CB         5.6260   21.7950    0.5580 C.3    81  PRO81       0.0282
     89  CG         6.1050   20.8520    1.6280 C.3    81  PRO81       0.0208
     90  CD         7.1820   20.1060    0.9030 C.3    81  PRO81       0.0893
     91  N          7.1490   21.8750   -2.2630 N.am   82  VAL82      -0.1980
     92  CA         7.5940   22.6460   -3.4160 C.3    82  VAL82       0.1595
     93  C          8.9400   22.0490   -3.9050 C.2    82  VAL82       0.2287
     94  O          9.5740   21.2810   -3.1710 O.2    82  VAL82      -0.2864
     95  CB         7.8160   24.1440   -2.9970 C.3    82  VAL82       0.0276
     96  CG1        9.0780   24.2760   -2.1420 C.3    82  VAL82       0.0022
     97  CG2        7.8820   25.0420   -4.2220 C.3    82  VAL82       0.0022
     98  N         12.6870   22.0350   -4.2690 N.3    84  ILE84      -0.1245
     99  CA        13.7390   22.6750   -3.4850 C.3    84  ILE84       0.1561
    100  C         15.1410   22.4880   -4.0880 C.2    84  ILE84       0.2260
    101  O         15.5500   21.3670   -4.3800 O.2    84  ILE84      -0.2867
    102  CB        13.7480   22.0850   -2.0150 C.3    84  ILE84       0.0252
    103  CG1       12.4480   22.4220   -1.3000 C.3    84  ILE84       0.0019
    104  CG2       14.9760   22.5570   -1.2420 C.3    84  ILE84       0.0019
    105  CD1       12.2230   21.6190   -0.0300 C.3    84  ILE84       0.0001
@<TRIPOS>BOND
     1    12    13    1
     2    13    14    1
     3    13    16    1
     4   101   100    2
     5    55    56    2
     6    55    54    1
     7    98    99    1
     8    97    95    1
     9     4     3    2
    10    14    15    2
    11   100    99    1
    12    93    92    1
    13    93    94    2
    14    99   102    1
    15    53    54    1
    16    92    95    1
    17    92    91    1
    18    54    57    1
    19    16    17    1
    20     3     2    1
    21    95    96    1
    22    87    86    2
    23    91    86   am
    24    18    17    1
    25   102   103    1
    26   102   104    1
    27    57    58    1
    28    57    59    1
    29     5     2    1
    30     5     6    1
    31    86    85    1
    32     2     1    1
    33    17    19    1
    34    20    21    1
    35    47    48    2
    36    47    46    1
    37   103   105    1
    38     7     6    1
    39     7     8    1
    40    10     9    1
    41    85    84    1
    42    85    88    1
    43    46    49    1
    44    46    45    1
    45    84    90    1
    46    49    50    1
    47    21    24    1
    48    21    22    1
    49    24    25    1
    50    40    39    2
    51    23    22    2
    52     8     9    2
    53     9    11    1
    54    51    50   ar
    55    88    89    1
    56    45    39   am
    57    50    52   ar
    58    90    89    1
    59    39    38    1
    60    35    34    2
    61    25    27   ar
    62    25    26   ar
    63    36    33    1
    64    67    65    1
    65    34    33    1
    66    34    37   am
    67    38    37    1
    68    38    41    1
    69    33    32    1
    70    66    64    1
    71    65    64    1
    72    32    30   am
    73    41    42    1
    74    28    29    1
    75    64    61    1
    76    30    29    1
    77    30    31    2
    78    42    43   ar
    79    42    44   ar
    80    60    61    1
    81    61    62    1
    82    62    63    2
    83    62    68   am
    84    68    69    1
    85    71    70    2
    86    73    72    1
    87    73    74    1
    88    70    72   am
    89    70    69    1
    90    76    74   am
    91    76    77    1
    92    82    80    1
    93    74    75    2
    94    80    77    1
    95    80    81    1
    96    77    78    1
    97    78    79    2
    98    81    83    1
