@<TRIPOS>MOLECULE
tmp/2bq4B00.pdb
 200 197 0 0 0
SMALL
GASTEIGER

@<TRIPOS>ATOM
      1  N         48.3710    5.2150   18.4270 N.3     1  PRO1       -0.2102
      2  CA        47.7450    6.2500   19.2890 C.3     1  PRO1        0.1504
      3  C         46.8630    7.4360   18.9540 C.2     1  PRO1        0.2576
      4  O         46.0050    7.7840   19.7630 O.2     1  PRO1       -0.2718
      5  CB        48.4390    6.1230   20.6440 C.3     1  PRO1        0.0282
      6  CG        48.7340    4.6200   20.7050 C.3     1  PRO1        0.0208
      7  CD        48.8390    4.0920   19.2570 C.3     1  PRO1        0.0893
      8  N         47.0550    8.0270   17.7780 N.am    2  GLN2       -0.1966
      9  CA        46.2770    9.1830   17.3420 C.3     2  GLN2        0.1733
     10  C         44.7900    8.8680   17.1890 C.2     2  GLN2        0.2616
     11  O         44.4210    7.8020   16.7050 O.2     2  GLN2       -0.2715
     12  CB        46.8050    9.6770   15.9940 C.3     2  GLN2        0.0408
     13  CG        46.2020   10.9880   15.5330 C.3     2  GLN2        0.0908
     14  CD        46.4750   11.2770   14.0760 C.2     2  GLN2        0.2608
     15  OE1       45.8800   12.1860   13.5140 O.2     2  GLN2       -0.2717
     16  NE2       47.3650   10.5160   13.4650 N.am    2  GLN2       -0.0878
     17  N         43.9460    9.8040   17.6150 N.am    3  VAL3       -0.1964
     18  CA        42.5360    9.8120   17.2600 C.3     3  VAL3        0.1712
     19  C         42.3250   10.9900   16.3000 C.2     3  VAL3        0.2458
     20  O         42.2150   12.1390   16.7380 O.2     3  VAL3       -0.2730
     21  CB        41.6210    9.9610   18.5110 C.3     3  VAL3        0.0289
     22  CG1       40.1610    9.8030   18.1180 C.3     3  VAL3        0.0023
     23  CG2       42.0000    8.9460   19.5970 C.3     3  VAL3        0.0023
     24  N         42.3100   10.7240   14.9910 N.am    4  PRO4       -0.2727
     25  CA        42.0000   11.7660   14.0060 C.3     4  PRO4        0.1402
     26  C         40.5770   12.2990   14.1300 C.2     4  PRO4        0.2269
     27  O         39.7130   11.6570   14.7170 O.2     4  PRO4       -0.2865
     28  CB        42.1690   11.0470   12.6600 C.3     4  PRO4        0.0296
     29  CG        42.9710    9.8410   12.9670 C.3     4  PRO4        0.0237
     30  CD        42.6190    9.4370   14.3470 C.3     4  PRO4        0.0939
     31  N         35.5180   12.1770    9.9400 N.3     7  VAL7       -0.1231
     32  CA        35.5870   12.4530    8.5100 C.3     7  VAL7        0.1692
     33  C         34.3090   12.0380    7.8030 C.2     7  VAL7        0.2592
     34  O         33.4640   11.3540    8.3700 O.2     7  VAL7       -0.2718
     35  CB        36.7990   11.7420    7.8390 C.3     7  VAL7        0.0266
     36  CG1       38.0970   12.2400    8.4460 C.3     7  VAL7        0.0020
     37  CG2       36.7170   10.2220    7.9720 C.3     7  VAL7        0.0020
     38  N         34.1640   12.4880    6.5640 N.am    8  VAL8       -0.1966
     39  CA        33.1460   11.9480    5.6850 C.3     8  VAL8        0.1727
     40  C         33.9060   11.2080    4.5930 C.2     8  VAL8        0.2616
     41  O         34.6630   11.8020    3.8190 O.2     8  VAL8       -0.2715
     42  CB        32.2080   13.0370    5.0970 C.3     8  VAL8        0.0290
     43  CG1       31.0830   12.3840    4.3000 C.3     8  VAL8        0.0023
     44  CG2       31.6340   13.9090    6.2140 C.3     8  VAL8        0.0023
     45  N         33.7480    9.8920    4.5750 N.am    9  ILE9       -0.1977
     46  CA        34.3510    9.0490    3.5490 C.3     9  ILE9        0.1596
     47  C         33.5660    9.2150    2.2490 C.2     9  ILE9        0.2287
     48  O         32.3830    8.8600    2.1760 O.2     9  ILE9       -0.2864
     49  CB        34.3620    7.5580    3.9970 C.3     9  ILE9        0.0276
     50  CG1       35.1260    7.4090    5.3110 C.3     9  ILE9        0.0022
     51  CG2       35.0020    6.6600    2.9200 C.3     9  ILE9        0.0022
     52  CD1       35.0750    6.0040    5.8990 C.3     9  ILE9        0.0001
     53  N         35.0830    8.8060   -1.4820 N.3    11  HIS11      -0.1241
     54  CA        36.0480    8.5480   -2.5370 C.3    11  HIS11       0.1621
     55  C         35.4230    8.0850   -3.8460 C.2    11  HIS11       0.2264
     56  O         36.0830    8.1140   -4.8780 O.2    11  HIS11      -0.2867
     57  CB        36.9930    7.4470   -2.0920 C.3    11  HIS11       0.0745
     58  CG        37.7660    7.7730   -0.8540 C.ar   11  HIS11       0.0817
     59  ND1       38.8950    8.5600   -0.8690 N.ar   11  HIS11      -0.2268
     60  CD2       37.5930    7.3870    0.4320 C.ar   11  HIS11       0.1154
     61  CE1       39.3750    8.6590    0.3570 C.ar   11  HIS11       0.1986
     62  NE2       38.5970    7.9670    1.1680 N.ar   11  HIS11      -0.2212
     63  N         32.4570    8.7450    9.3660 N.3    25  PHE25      -0.1241
     64  CA        33.2860    7.7940   10.0920 C.3    25  PHE25       0.1605
     65  C         34.0600    8.4810   11.2070 C.2    25  PHE25       0.2264
     66  O         34.8370    9.4100   10.9610 O.2    25  PHE25      -0.2867
     67  CB        34.2770    7.1090    9.1580 C.3    25  PHE25       0.0534
     68  CG        35.1460    6.1170    9.8600 C.ar   25  PHE25      -0.0203
     69  CD1       34.6120    4.9310   10.3180 C.ar   25  PHE25      -0.0042
     70  CD2       36.4810    6.3920   10.1130 C.ar   25  PHE25      -0.0042
     71  CE1       35.3970    4.0090   10.9970 C.ar   25  PHE25      -0.0003
     72  CE2       37.2720    5.4760   10.7980 C.ar   25  PHE25      -0.0003
     73  CZ        36.7310    4.2870   11.2340 C.ar   25  PHE25      -0.0000
     74  N         36.7500    7.9270   14.2370 N.3    27  HIS27      -0.1241
     75  CA        37.7440    7.1620   14.9690 C.3    27  HIS27       0.1621
     76  C         37.4310    7.1780   16.4690 C.2    27  HIS27       0.2264
     77  O         37.5750    6.1580   17.1460 O.2    27  HIS27      -0.2867
     78  CB        39.1320    7.7370   14.7260 C.3    27  HIS27       0.0745
     79  CG        39.7750    7.2750   13.4580 C.ar   27  HIS27       0.0817
     80  ND1       39.9450    8.0960   12.3660 N.ar   27  HIS27      -0.2268
     81  CD2       40.3480    6.0930   13.1310 C.ar   27  HIS27       0.1154
     82  CE1       40.5690    7.4320   11.4090 C.ar   27  HIS27       0.1986
     83  NE2       40.8430    6.2210   11.8550 N.ar   27  HIS27      -0.2212
     84  N         34.9370    4.6520   17.6550 N.3    30  HIS30      -0.1241
     85  CA        35.4530    3.2820   17.6190 C.3    30  HIS30       0.1621
     86  C         36.4370    2.9330   18.7410 C.2    30  HIS30       0.2264
     87  O         37.0820    1.8950   18.6800 O.2    30  HIS30      -0.2867
     88  CB        36.0540    2.9900   16.2310 C.3    30  HIS30       0.0745
     89  CG        35.0050    2.8120   15.1880 C.ar   30  HIS30       0.0817
     90  ND1       34.2740    3.8680   14.6880 N.ar   30  HIS30      -0.2268
     91  CD2       34.5090    1.6980   14.6040 C.ar   30  HIS30       0.1154
     92  CE1       33.3910    3.4120   13.8200 C.ar   30  HIS30       0.1986
     93  NE2       33.5050    2.0980   13.7590 N.ar   30  HIS30      -0.2212
     94  N         36.9180   -0.5570   20.4710 N.3    33  LEU33      -0.1231
     95  CA        37.7700   -1.5910   19.8800 C.3    33  LEU33       0.1693
     96  C         39.1680   -1.5990   20.5030 C.2    33  LEU33       0.2593
     97  O         39.9440   -2.5340   20.2860 O.2    33  LEU33      -0.2718
     98  CB        37.9070   -1.3720   18.3690 C.3    33  LEU33       0.0284
     99  CG        36.6730   -1.6270   17.5070 C.3    33  LEU33       0.0019
    100  CD1       36.9180   -1.1280   16.0840 C.3    33  LEU33       0.0001
    101  CD2       36.3270   -3.1110   17.5040 C.3    33  LEU33       0.0001
    102  N         39.4630   -0.5640   21.2770 N.am   34  GLY34      -0.1942
    103  CA        40.7890   -0.3140   21.8090 C.3    34  GLY34       0.2014
    104  C         41.3360    0.9960   21.2790 C.2    34  GLY34       0.2640
    105  O         40.9280    1.4760   20.2130 O.2    34  GLY34      -0.2714
    106  N         42.2660    1.5690   22.0380 N.am   35  THR35      -0.1936
    107  CA        42.9190    2.8330   21.7080 C.3    35  THR35       0.2028
    108  C         44.4270    2.6400   21.4850 C.2    35  THR35       0.2642
    109  O         45.1650    3.6140   21.3110 O.2    35  THR35      -0.2714
    110  CB        42.6480    3.8600   22.8340 C.3    35  THR35       0.1808
    111  OG1       42.8450    3.2550   24.1220 O.3    35  THR35      -0.2208
    112  CG2       41.1790    4.2580   22.8530 C.3    35  THR35       0.0379
    113  N         44.8550    1.3740   21.4500 N.am   36  ASP36      -0.1971
    114  CA        46.2610    0.9800   21.3010 C.3    36  ASP36       0.1709
    115  C         46.5740    0.6260   19.8420 C.2    36  ASP36       0.2293
    116  O         45.6780    0.6320   19.0020 O.2    36  ASP36      -0.2864
    117  CB        46.6030   -0.1990   22.2390 C.3    36  ASP36       0.1436
    118  CG        45.7300   -1.4400   22.0120 C.2    36  ASP36       0.3671
    119  OD1       44.9830   -1.5160   21.0150 O.co2  36  ASP36      -0.2456
    120  OD2       45.7320   -2.4110   22.7980 O.co2  36  ASP36      -0.2456
    121  N         44.5550   -2.1120   18.1010 N.3    39  ALA39      -0.1231
    122  CA        43.2300   -1.6720   17.6820 C.3    39  ALA39       0.1694
    123  C         43.3010   -1.0320   16.3050 C.2    39  ALA39       0.2592
    124  O         42.4710   -1.3140   15.4560 O.2    39  ALA39      -0.2718
    125  CB        42.6390   -0.6970   18.6870 C.3    39  ALA39       0.0304
    126  N         44.2960   -0.1740   16.0880 N.am   40  CYS40      -0.1970
    127  CA        44.5190    0.4010   14.7600 C.3    40  CYS40       0.1712
    128  C         44.5790   -0.6890   13.7050 C.2    40  CYS40       0.2296
    129  O         44.0040   -0.5420   12.6400 O.2    40  CYS40      -0.2864
    130  CB        45.8160    1.2040   14.6860 C.3    40  CYS40       0.0983
    131  SG        46.0480    2.4390   15.9690 S.3    40  CYS40      -0.0798
    132  N         41.6940   -2.4830   11.4630 N.3    43  CYS43      -0.1221
    133  CA        41.2720   -1.9060   10.1950 C.3    43  CYS43       0.1808
    134  C         42.4490   -1.6240    9.2730 C.2    43  CYS43       0.2601
    135  O         42.4170   -1.9750    8.0940 O.2    43  CYS43      -0.2717
    136  CB        40.5100   -0.6180   10.4590 C.3    43  CYS43       0.0970
    137  SG        39.0490   -0.9100   11.4770 S.3    43  CYS43      -0.0800
    138  N         43.4790   -0.9840    9.8170 N.am   44  HIS44      -0.1975
    139  CA        44.7190   -0.7370    9.0920 C.3    44  HIS44       0.1656
    140  C         45.5730   -2.0000    9.1720 C.2    44  HIS44       0.2291
    141  O         46.6240   -2.0170    9.8120 O.2    44  HIS44      -0.2864
    142  CB        45.4670    0.4380    9.6970 C.3    44  HIS44       0.0771
    143  CG        44.6860    1.7140    9.7290 C.ar   44  HIS44       0.0820
    144  ND1       45.0270    2.8030    8.9620 N.ar   44  HIS44      -0.2267
    145  CD2       43.5900    2.0800   10.4320 C.ar   44  HIS44       0.1154
    146  CE1       44.1840    3.7900    9.1990 C.ar   44  HIS44       0.1986
    147  NE2       43.3100    3.3830   10.0980 N.ar   44  HIS44      -0.2212
    148  N         49.3420   -2.1950    8.3240 N.3    47  TRP47      -0.1241
    149  CA        50.2220   -1.3260    9.1090 C.3    47  TRP47       0.1605
    150  C         51.2510   -2.1790    9.8580 C.2    47  TRP47       0.2264
    151  O         50.9000   -3.2000   10.4320 O.2    47  TRP47      -0.2867
    152  CB        49.3930   -0.5050   10.1100 C.3    47  TRP47       0.0550
    153  CG        50.1950    0.4850   10.9210 C.ar   47  TRP47       0.0003
    154  CD1       51.2030    1.2790   10.4730 C.ar   47  TRP47       0.0946
    155  CD2       50.0570    0.7670   12.3210 C.ar   47  TRP47       0.0152
    156  NE1       51.6970    2.0440   11.5010 N.ar   47  TRP47      -0.2442
    157  CE2       51.0160    1.7400   12.6510 C.ar   47  TRP47       0.0810
    158  CE3       49.2180    0.2890   13.3350 C.ar   47  TRP47       0.0012
    159  CZ2       51.1520    2.2520   13.9410 C.ar   47  TRP47       0.0191
    160  CZ3       49.3570    0.7960   14.6140 C.ar   47  TRP47       0.0001
    161  CH2       50.3090    1.7690   14.9060 C.ar   47  TRP47       0.0015
    162  N         50.5330    6.1670    9.4090 N.3    53  ILE53      -0.1231
    163  CA        49.3340    5.4710    8.9740 C.3    53  ILE53       0.1692
    164  C         48.6420    6.3300    7.9300 C.2    53  ILE53       0.2593
    165  O         48.5420    7.5540    8.0860 O.2    53  ILE53      -0.2718
    166  CB        48.4050    5.2060   10.1780 C.3    53  ILE53       0.0266
    167  CG1       48.9740    4.1040   11.0750 C.3    53  ILE53       0.0019
    168  CG2       47.0280    4.8040    9.7110 C.3    53  ILE53       0.0020
    169  CD1       48.3040    4.0260   12.4550 C.3    53  ILE53       0.0001
    170  N         48.1690    5.6720    6.8750 N.am   54  GLY54      -0.1942
    171  CA        47.4790    6.3120    5.7740 C.3    54  GLY54       0.2014
    172  C         46.0960    5.7200    5.5430 C.2    54  GLY54       0.2639
    173  O         45.5780    4.9400    6.3510 O.2    54  GLY54      -0.2714
    174  N         45.5030    6.1010    4.4220 N.am   55  GLY55      -0.1939
    175  CA        44.1790    5.6380    4.0430 C.3    55  GLY55       0.2014
    176  C         44.1980    4.2490    3.4260 C.2    55  GLY55       0.2639
    177  O         45.1870    3.5090    3.5300 O.2    55  GLY55      -0.2714
    178  N         43.0960    3.9070    2.7720 N.am   56  CYS56      -0.1967
    179  CA        42.8590    2.5560    2.2800 C.3    56  CYS56       0.1712
    180  C         43.0510    2.4260    0.7800 C.2    56  CYS56       0.2296
    181  O         43.1470    1.3090    0.2840 O.2    56  CYS56      -0.2864
    182  CB        41.4310    2.1190    2.6040 C.3    56  CYS56       0.0983
    183  SG        40.9340    2.2900    4.3320 S.3    56  CYS56      -0.0798
    184  N         35.2010   -1.7470    2.1800 N.3    82  PHE82      -0.1241
    185  CA        34.1400   -1.2490    3.0540 C.3    82  PHE82       0.1605
    186  C         32.9490   -2.2130    3.2330 C.2    82  PHE82       0.2264
    187  O         32.1410   -2.0300    4.1380 O.2    82  PHE82      -0.2867
    188  CB        33.6450    0.1090    2.5400 C.3    82  PHE82       0.0534
    189  CG        34.7120    1.1940    2.4970 C.ar   82  PHE82      -0.0203
    190  CD1       34.6340    2.2120    1.5540 C.ar   82  PHE82      -0.0042
    191  CD2       35.7770    1.2130    3.4010 C.ar   82  PHE82      -0.0042
    192  CE1       35.5830    3.2180    1.5030 C.ar   82  PHE82      -0.0003
    193  CE2       36.7410    2.2390    3.3540 C.ar   82  PHE82      -0.0003
    194  CZ        36.6410    3.2340    2.4070 C.ar   82  PHE82      -0.0000
    195  N         33.6780   -2.3680    6.9160 N.3    90  CYS90      -0.1235
    196  CA        32.6350   -1.7290    7.7110 C.3    90  CYS90       0.1677
    197  C         31.4640   -2.6730    7.9450 C.2    90  CYS90       0.2270
    198  O         31.0550   -2.8990    9.0860 O.2    90  CYS90      -0.2867
    199  CB        32.0930   -0.4790    7.0150 C.3    90  CYS90       0.0956
    200  SG        33.3220    0.6330    6.3000 S.3    90  CYS90      -0.0801
@<TRIPOS>BOND
     1    56    55    2
     2    55    54    1
     3    54    57    1
     4    54    53    1
     5    57    58    1
     6    59    58   ar
     7    59    61   ar
     8    58    60   ar
     9   181   180    2
    10    61    62   ar
    11    60    62   ar
    12   180   179    1
    13   192   190   ar
    14   192   194   ar
    15   190   189   ar
    16    48    47    2
    17   184   185    1
    18    47    46    1
    19   179   182    1
    20   179   178    1
    21   194   193   ar
    22   189   188    1
    23   189   191   ar
    24   188   185    1
    25   182   183    1
    26   178   176   am
    27    51    49    1
    28   185   186    1
    29   186   187    2
    30   193   191   ar
    31   176   177    2
    32   176   175    1
    33    46    49    1
    34    46    45    1
    35    41    40    2
    36    49    50    1
    37   175   174    1
    38    43    42    1
    39   174   172   am
    40    45    40   am
    41    40    39    1
    42    42    39    1
    43    42    44    1
    44    50    52    1
    45   172   171    1
    46   172   173    2
    47    39    38    1
    48   171   170    1
    49   200   199    1
    50    38    33   am
    51   170   164   am
    52   195   196    1
    53   199   196    1
    54   196   197    1
    55    33    34    2
    56    33    32    1
    57    35    37    1
    58    35    36    1
    59    35    32    1
    60   164   165    2
    61   164   163    1
    62   197   198    2
    63   135   134    2
    64   148   149    1
    65    32    31    1
    66   144   146   ar
    67   144   143   ar
    68   163   162    1
    69   163   166    1
    70   139   140    1
    71   139   142    1
    72   139   138    1
    73   149   150    1
    74   149   152    1
    75    67    68    1
    76    67    64    1
    77   140   141    2
    78   146   147   ar
    79   134   138   am
    80   134   133    1
    81    63    64    1
    82   142   143    1
    83   168   166    1
    84   143   145   ar
    85   150   151    2
    86    68    70   ar
    87    68    69   ar
    88    64    65    1
    89   147   145   ar
    90   152   153    1
    91    70    72   ar
    92   166   167    1
    93   133   136    1
    94   133   132    1
    95    69    71   ar
    96   136   137    1
    97   154   153   ar
    98   154   156   ar
    99    72    73   ar
   100   153   155   ar
   101    66    65    2
   102    71    73   ar
   103   167   169    1
   104    82    83   ar
   105    82    80   ar
   106   156   157   ar
   107    83    81   ar
   108   155   157   ar
   109   155   158   ar
   110    80    79   ar
   111   129   128    2
   112   157   159   ar
   113    28    29    1
   114    28    25    1
   115    29    30    1
   116    81    79   ar
   117   158   160   ar
   118    79    78    1
   119    16    14   am
   120    15    14    2
   121   128   127    1
   122    93    92   ar
   123    93    91   ar
   124    92    90   ar
   125   159   161   ar
   126    25    26    1
   127    25    24    1
   128    14    13    1
   129    26    27    2
   130    74    75    1
   131    30    24    1
   132    91    89   ar
   133   160   161   ar
   134   130   127    1
   135   130   131    1
   136    90    89   ar
   137    78    75    1
   138   127   126    1
   139    75    76    1
   140    24    19   am
   141    89    88    1
   142   124   123    2
   143    13    12    1
   144    12     9    1
   145   100    99    1
   146   126   123   am
   147    88    85    1
   148    19    20    2
   149    19    18    1
   150   123   122    1
   151    76    77    2
   152    11    10    2
   153    10     9    1
   154    10    17   am
   155    18    17    1
   156    18    21    1
   157     9     8    1
   158   101    99    1
   159    99    98    1
   160    85    84    1
   161    85    86    1
   162   122   121    1
   163   122   125    1
   164     8     3   am
   165    22    21    1
   166    98    95    1
   167     1     7    1
   168     1     2    1
   169    21    23    1
   170    87    86    2
   171     3     2    1
   172     3     4    2
   173   116   115    2
   174     7     6    1
   175     2     5    1
   176   115   114    1
   177    95    94    1
   178    95    96    1
   179   105   104    2
   180    97    96    2
   181    96   102   am
   182     5     6    1
   183   119   118   ar
   184   102   103    1
   185   104   103    1
   186   104   106   am
   187   114   113    1
   188   114   117    1
   189   109   108    2
   190   113   108   am
   191   108   107    1
   192   107   106    1
   193   107   110    1
   194   118   117    1
   195   118   120   ar
   196   110   112    1
   197   110   111    1
