@<TRIPOS>MOLECULE
tmp/2bq4B02.pdb
 187 181 0 0 0
SMALL
GASTEIGER

@<TRIPOS>ATOM
      1  N         33.7480    9.8920    4.5750 N.3     9  ILE9       -0.1245
      2  CA        34.3510    9.0490    3.5490 C.3     9  ILE9        0.1561
      3  C         33.5660    9.2150    2.2490 C.2     9  ILE9        0.2260
      4  O         32.3830    8.8600    2.1760 O.2     9  ILE9       -0.2867
      5  CB        34.3620    7.5580    3.9970 C.3     9  ILE9        0.0252
      6  CG1       35.1260    7.4090    5.3110 C.3     9  ILE9        0.0019
      7  CG2       35.0020    6.6600    2.9200 C.3     9  ILE9        0.0019
      8  CD1       35.0750    6.0040    5.8990 C.3     9  ILE9        0.0001
      9  N         29.7920    8.9660    3.6260 N.3    23  VAL23      -0.1231
     10  CA        29.5550    8.1650    4.8190 C.3    23  VAL23       0.1692
     11  C         30.4190    8.6330    5.9790 C.2    23  VAL23       0.2592
     12  O         31.6380    8.5630    5.9240 O.2    23  VAL23      -0.2718
     13  CB        29.8410    6.6720    4.5660 C.3    23  VAL23       0.0266
     14  CG1       29.5450    5.8420    5.8230 C.3    23  VAL23       0.0020
     15  CG2       29.0380    6.1630    3.3810 C.3    23  VAL23       0.0020
     16  N         29.7680    9.0790    7.0460 N.am   24  LYS24      -0.1966
     17  CA        30.4850    9.5670    8.2140 C.3    24  LYS24       0.1728
     18  C         31.2400    8.4400    8.9230 C.2    24  LYS24       0.2616
     19  O         30.7270    7.3290    9.0690 O.2    24  LYS24      -0.2715
     20  CB        29.5040   10.2430    9.1710 C.3    24  LYS24       0.0311
     21  CG        28.9290   11.5290    8.5970 C.3    24  LYS24       0.0038
     22  CD        28.3770   12.4390    9.6710 C.3    24  LYS24       0.0206
     23  CE        27.0370   11.9550   10.1840 C.3    24  LYS24       0.1093
     24  NZ        26.4030   12.9660   11.1070 N.3    24  LYS24      -0.1314
     25  N         32.4570    8.7450    9.3660 N.am   25  PHE25      -0.1960
     26  CA        33.2860    7.7940   10.0920 C.3    25  PHE25       0.1771
     27  C         34.0600    8.4810   11.2070 C.2    25  PHE25       0.2620
     28  O         34.8370    9.4100   10.9610 O.2    25  PHE25      -0.2715
     29  CB        34.2770    7.1090    9.1580 C.3    25  PHE25       0.0574
     30  CG        35.1460    6.1170    9.8600 C.ar   25  PHE25      -0.0200
     31  CD1       34.6120    4.9310   10.3180 C.ar   25  PHE25      -0.0042
     32  CD2       36.4810    6.3920   10.1130 C.ar   25  PHE25      -0.0042
     33  CE1       35.3970    4.0090   10.9970 C.ar   25  PHE25      -0.0003
     34  CE2       37.2720    5.4760   10.7980 C.ar   25  PHE25      -0.0003
     35  CZ        36.7310    4.2870   11.2340 C.ar   25  PHE25      -0.0000
     36  N         33.8960    7.9630   12.4200 N.am   26  SER26      -0.1950
     37  CA        34.4910    8.5570   13.6070 C.3    26  SER26       0.1924
     38  C         35.4650    7.5790   14.2500 C.2    26  SER26       0.2314
     39  O         35.0580    6.5310   14.7510 O.2    26  SER26      -0.2863
     40  CB        33.4000    8.9220   14.6070 C.3    26  SER26       0.2116
     41  OG        33.9570    9.3710   15.8280 O.3    26  SER26      -0.2180
     42  N         34.5290    7.3580   17.9810 N.3    29  ALA29      -0.1231
     43  CA        33.4240    6.4470   18.2700 C.3    29  ALA29       0.1694
     44  C         33.8800    4.9980   18.3840 C.2    29  ALA29       0.2592
     45  O         33.2830    4.2120   19.1240 O.2    29  ALA29      -0.2718
     46  CB        32.3430    6.5750   17.2040 C.3    29  ALA29       0.0304
     47  N         34.9370    4.6520   17.6550 N.am   30  HIS30      -0.1976
     48  CA        35.4530    3.2820   17.6190 C.3    30  HIS30       0.1656
     49  C         36.4370    2.9330   18.7410 C.2    30  HIS30       0.2291
     50  O         37.0820    1.8950   18.6800 O.2    30  HIS30      -0.2864
     51  CB        36.0540    2.9900   16.2310 C.3    30  HIS30       0.0771
     52  CG        35.0050    2.8120   15.1880 C.ar   30  HIS30       0.0820
     53  ND1       34.2740    3.8680   14.6880 N.ar   30  HIS30      -0.2267
     54  CD2       34.5090    1.6980   14.6040 C.ar   30  HIS30       0.1154
     55  CE1       33.3910    3.4120   13.8200 C.ar   30  HIS30       0.1986
     56  NE2       33.5050    2.0980   13.7590 N.ar   30  HIS30      -0.2212
     57  N         35.9490    1.7740   21.6450 N.3    32  SER32      -0.1202
     58  CA        35.6240    0.4960   22.2730 C.3    32  SER32       0.2020
     59  C         36.3670   -0.7090   21.6750 C.2    32  SER32       0.2618
     60  O         36.4290   -1.7700   22.2930 O.2    32  SER32      -0.2717
     61  CB        34.1170    0.2540   22.2220 C.3    32  SER32       0.2103
     62  OG        33.6770    0.0940   20.8830 O.3    32  SER32      -0.2182
     63  N         36.9180   -0.5570   20.4710 N.am   33  LEU33      -0.1979
     64  CA        37.7700   -1.5910   19.8800 C.3    33  LEU33       0.1596
     65  C         39.1680   -1.5990   20.5030 C.2    33  LEU33       0.2287
     66  O         39.9440   -2.5340   20.2860 O.2    33  LEU33      -0.2864
     67  CB        37.9070   -1.3720   18.3690 C.3    33  LEU33       0.0297
     68  CG        36.6730   -1.6270   17.5070 C.3    33  LEU33       0.0022
     69  CD1       36.9180   -1.1280   16.0840 C.3    33  LEU33       0.0001
     70  CD2       36.3270   -3.1110   17.5040 C.3    33  LEU33       0.0001
     71  N         43.2300   -3.5240   13.4880 N.3    42  LYS42      -0.1231
     72  CA        41.9800   -4.2140   13.1580 C.3    42  LYS42       0.1693
     73  C         41.3720   -3.7170   11.8330 C.2    42  LYS42       0.2592
     74  O         40.6220   -4.4310   11.1750 O.2    42  LYS42      -0.2718
     75  CB        40.9680   -4.0790   14.2950 C.3    42  LYS42       0.0285
     76  CG        41.4430   -4.6950   15.6100 C.3    42  LYS42       0.0035
     77  CD        40.4330   -4.5070   16.7300 C.3    42  LYS42       0.0206
     78  CE        40.7710   -5.4140   17.9230 C.3    42  LYS42       0.1093
     79  NZ        39.9710   -5.1050   19.1330 N.3    42  LYS42      -0.1314
     80  N         41.6940   -2.4830   11.4630 N.am   43  CYS43      -0.1970
     81  CA        41.2720   -1.9060   10.1950 C.3    43  CYS43       0.1712
     82  C         42.4490   -1.6240    9.2730 C.2    43  CYS43       0.2296
     83  O         42.4170   -1.9750    8.0940 O.2    43  CYS43      -0.2864
     84  CB        40.5100   -0.6180   10.4590 C.3    43  CYS43       0.0983
     85  SG        39.0490   -0.9100   11.4770 S.3    43  CYS43      -0.0798
     86  N         35.2010   -1.7470    2.1800 N.3    82  PHE82      -0.1241
     87  CA        34.1400   -1.2490    3.0540 C.3    82  PHE82       0.1605
     88  C         32.9490   -2.2130    3.2330 C.2    82  PHE82       0.2264
     89  O         32.1410   -2.0300    4.1380 O.2    82  PHE82      -0.2867
     90  CB        33.6450    0.1090    2.5400 C.3    82  PHE82       0.0534
     91  CG        34.7120    1.1940    2.4970 C.ar   82  PHE82      -0.0203
     92  CD1       34.6340    2.2120    1.5540 C.ar   82  PHE82      -0.0042
     93  CD2       35.7770    1.2130    3.4010 C.ar   82  PHE82      -0.0042
     94  CE1       35.5830    3.2180    1.5030 C.ar   82  PHE82      -0.0003
     95  CE2       36.7410    2.2390    3.3540 C.ar   82  PHE82      -0.0003
     96  CZ        36.6410    3.2340    2.4070 C.ar   82  PHE82      -0.0000
     97  N         36.0410   -9.1730    8.5890 N.3    87  PRO87      -0.2102
     98  CA        35.8370   -8.2920    9.7480 C.3    87  PRO87       0.1504
     99  C         36.7200   -7.0380    9.7340 C.2    87  PRO87       0.2576
    100  O         36.7580   -6.3020   10.7200 O.2    87  PRO87      -0.2718
    101  CB        36.1910   -9.1900   10.9430 C.3    87  PRO87       0.0282
    102  CG        37.1350  -10.1980   10.4090 C.3    87  PRO87       0.0208
    103  CD        36.8970  -10.3260    8.9280 C.3    87  PRO87       0.0893
    104  N         37.4240   -6.8100    8.6320 N.am   88  MET88      -0.1966
    105  CA        38.1950   -5.5880    8.4300 C.3    88  MET88       0.1736
    106  C         37.3770   -4.5570    7.6280 C.2    88  MET88       0.2617
    107  O         37.7840   -3.4040    7.4940 O.2    88  MET88      -0.2715
    108  CB        39.5130   -5.9280    7.7340 C.3    88  MET88       0.0427
    109  CG        40.2390   -7.1080    8.3860 C.3    88  MET88       0.0599
    110  SD        41.8550   -7.4220    7.7720 S.3    88  MET88      -0.1393
    111  CE        41.5530   -7.6860    6.0770 C.3    88  MET88       0.0692
    112  N         36.2230   -4.9700    7.1060 N.am   89  SER89      -0.1936
    113  CA        35.3290   -4.0690    6.3740 C.3    89  SER89       0.2055
    114  C         34.2560   -3.5010    7.3030 C.2    89  SER89       0.2643
    115  O         33.9630   -4.0730    8.3460 O.2    89  SER89      -0.2714
    116  CB        34.6730   -4.7930    5.1900 C.3    89  SER89       0.2130
    117  OG        33.3560   -5.2110    5.4920 O.3    89  SER89      -0.2179
    118  N         33.6780   -2.3680    6.9160 N.am   90  CYS90      -0.1967
    119  CA        32.6350   -1.7290    7.7110 C.3    90  CYS90       0.1712
    120  C         31.4640   -2.6730    7.9450 C.2    90  CYS90       0.2296
    121  O         31.0550   -2.8990    9.0860 O.2    90  CYS90      -0.2864
    122  CB        32.0930   -0.4790    7.0150 C.3    90  CYS90       0.0983
    123  SG        33.3220    0.6330    6.3000 S.3    90  CYS90      -0.0798
    124  N         32.5660   -6.3150    9.7990 N.3    93  CYS93      -0.1221
    125  CA        32.7730   -6.2400   11.2370 C.3    93  CYS93       0.1808
    126  C         31.4740   -6.0020   11.9800 C.2    93  CYS93       0.2601
    127  O         31.1800   -6.6930   12.9450 O.2    93  CYS93      -0.2717
    128  CB        33.7430   -5.1430   11.6300 C.3    93  CYS93       0.0970
    129  SG        33.9270   -5.1330   13.4250 S.3    93  CYS93      -0.0800
    130  N         30.6940   -5.0170   11.5440 N.am   94  HIS94      -0.1975
    131  CA        29.4490   -4.7040   12.2260 C.3    94  HIS94       0.1656
    132  C         28.5540   -5.9470   12.2820 C.2    94  HIS94       0.2291
    133  O         27.9730   -6.2480   13.3170 O.2    94  HIS94      -0.2864
    134  CB        28.7190   -3.5470   11.5400 C.3    94  HIS94       0.0771
    135  CG        29.3840   -2.2160   11.7180 C.ar   94  HIS94       0.0820
    136  ND1       28.8820   -1.0640   11.1600 N.ar   94  HIS94      -0.2267
    137  CD2       30.5090   -1.8530   12.3820 C.ar   94  HIS94       0.1154
    138  CE1       29.6580   -0.0460   11.4760 C.ar   94  HIS94       0.1986
    139  NE2       30.6540   -0.4940   12.2220 N.ar   94  HIS94      -0.2212
    140  N         29.9420   -8.6490   14.7050 N.3    97  MET97      -0.1245
    141  CA        29.7350   -8.2510   16.0890 C.3    97  MET97       0.1570
    142  C         28.2560   -8.3070   16.4910 C.2    97  MET97       0.2261
    143  O         27.9530   -8.6370   17.6320 O.2    97  MET97      -0.2867
    144  CB        30.3170   -6.8530   16.3270 C.3    97  MET97       0.0387
    145  CG        31.8450   -6.8050   16.2020 C.3    97  MET97       0.0595
    146  SD        32.5470   -5.2100   16.6900 S.3    97  MET97      -0.1393
    147  CE        32.4020   -5.2850   18.5050 C.3    97  MET97       0.0692
    148  N         27.9110   -4.6520   21.2940 N.3   103  THR103     -0.1203
    149  CA        27.6410   -3.3020   20.8170 C.3   103  THR103      0.1994
    150  C         28.4860   -3.0460   19.5720 C.2   103  THR103      0.2619
    151  O         29.6890   -3.3340   19.5590 O.2   103  THR103     -0.2717
    152  CB        27.9470   -2.2640   21.9160 C.3   103  THR103      0.1784
    153  OG1       26.9390   -2.3280   22.9360 O.3   103  THR103     -0.2211
    154  CG2       27.8390   -0.8420   21.3840 C.3   103  THR103      0.0376
    155  N         27.8450   -2.5320   18.5260 N.am  104  THR104     -0.1938
    156  CA        28.5210   -2.3050   17.2470 C.3   104  THR104      0.2028
    157  C         27.7840   -1.2840   16.3630 C.2   104  THR104      0.2643
    158  O         26.7540   -0.7190   16.7540 O.2   104  THR104     -0.2714
    159  CB        28.7580   -3.6630   16.5180 C.3   104  THR104      0.1808
    160  OG1       29.7460   -3.5190   15.4840 O.3   104  THR104     -0.2208
    161  CG2       27.4970   -4.1570   15.8080 C.3   104  THR104      0.0379
    162  N         28.3390   -1.0170   15.1840 N.am  105  GLY105     -0.1940
    163  CA        27.7850   -0.0080   14.3050 C.3   105  GLY105      0.1998
    164  C         26.6790   -0.5370   13.4140 C.2   105  GLY105      0.2480
    165  O         26.3190   -1.7170   13.4770 O.2   105  GLY105     -0.2729
    166  N         26.1350    0.3330   12.5680 N.am  106  PRO106     -0.2726
    167  CA        25.0120   -0.0500   11.7080 C.3   106  PRO106      0.1402
    168  C         25.3470   -1.1740   10.7290 C.2   106  PRO106      0.2269
    169  O         26.4190   -1.1860   10.1290 O.2   106  PRO106     -0.2865
    170  CB        24.6720    1.2430   10.9620 C.3   106  PRO106      0.0296
    171  CG        25.8770    2.1130   11.0810 C.3   106  PRO106      0.0237
    172  CD        26.5370    1.7370   12.3650 C.3   106  PRO106      0.0939
    173  N         23.9260    2.8420    7.6200 N.3   112  CYS112     -0.1235
    174  CA        25.3280    3.2430    7.5430 C.3   112  CYS112      0.1677
    175  C         25.5610    4.4310    6.6120 C.2   112  CYS112      0.2270
    176  O         26.2670    5.3600    6.9760 O.2   112  CYS112     -0.2867
    177  CB        26.2110    2.0860    7.1030 C.3   112  CYS112      0.0956
    178  SG        27.9420    2.5500    7.1760 S.3   112  CYS112     -0.0801
    179  N         23.5730    8.4790    8.0070 N.3   115  GLN115     -0.1245
    180  CA        23.5520    8.5910    9.4600 C.3   115  GLN115      0.1566
    181  C         22.8210    9.8670    9.8890 C.2   115  GLN115      0.2260
    182  O         22.9790   10.9110    9.2460 O.2   115  GLN115     -0.2867
    183  CB        24.9800    8.5650   10.0100 C.3   115  GLN115      0.0367
    184  CG        25.6760    7.2210    9.8170 C.3   115  GLN115      0.0905
    185  CD        27.1820    7.3250    9.8900 C.2   115  GLN115      0.2608
    186  OE1       27.8950    6.8000    9.0280 O.2   115  GLN115     -0.2717
    187  NE2       27.6750    7.9950   10.9240 N.am  115  GLN115     -0.0878
@<TRIPOS>BOND
     1    94    92   ar
     2    94    96   ar
     3    92    91   ar
     4     4     3    2
     5    86    87    1
     6     3     2    1
     7    96    95   ar
     8    91    90    1
     9    91    93   ar
    10    90    87    1
    11     7     5    1
    12    87    88    1
    13    88    89    2
    14    95    93   ar
    15    15    13    1
    16     2     5    1
    17     2     1    1
    18     9    10    1
    19     5     6    1
    20    13    10    1
    21    13    14    1
    22    10    11    1
    23   116   117    1
    24   116   113    1
    25     6     8    1
    26    12    11    2
    27    11    16   am
    28   111   110    1
    29   123   122    1
    30   113   112    1
    31   113   114    1
    32   175   176    2
    33   175   174    1
    34   118   114   am
    35   118   119    1
    36   122   119    1
    37    16    17    1
    38   177   178    1
    39   177   174    1
    40   112   106   am
    41   114   115    2
    42   107   106    2
    43   174   173    1
    44   106   105    1
    45   119   120    1
    46   108   109    1
    47   108   105    1
    48   110   109    1
    49   120   121    2
    50   179   180    1
    51    83    82    2
    52    17    18    1
    53    17    20    1
    54   105   104    1
    55    97   103    1
    56    97    98    1
    57    21    20    1
    58    21    22    1
    59   104    99   am
    60    18    19    2
    61    18    25   am
    62   103   102    1
    63   186   185    2
    64    29    30    1
    65    29    26    1
    66   182   181    2
    67    82    81    1
    68    25    26    1
    69   180   181    1
    70   180   183    1
    71    22    23    1
    72    99    98    1
    73    99   100    2
    74    98   101    1
    75   124   125    1
    76   184   185    1
    77   184   183    1
    78    30    32   ar
    79    30    31   ar
    80   185   187   am
    81    26    27    1
    82    32    34   ar
    83   169   168    2
    84    23    24    1
    85    81    84    1
    86    81    80    1
    87    31    33   ar
    88   102   101    1
    89    84    85    1
    90   168   167    1
    91    34    35   ar
    92    28    27    2
    93   170   171    1
    94   170   167    1
    95    33    35   ar
    96   171   172    1
    97   136   138   ar
    98   136   135   ar
    99    74    73    2
   100    27    36   am
   101   125   128    1
   102   125   126    1
   103    80    73   am
   104   138   139   ar
   105   134   135    1
   106   134   131    1
   107   130   126   am
   108   130   131    1
   109   128   129    1
   110   167   166    1
   111   135   137   ar
   112    73    72    1
   113   126   127    2
   114   139   137   ar
   115   131   132    1
   116   132   133    2
   117   172   166    1
   118    36    37    1
   119   166   164   am
   120    72    71    1
   121    72    75    1
   122   164   165    2
   123   164   163    1
   124    37    38    1
   125    37    40    1
   126    56    55   ar
   127    56    54   ar
   128    55    53   ar
   129    38    39    2
   130    75    76    1
   131   163   162    1
   132    54    52   ar
   133    40    41    1
   134    53    52   ar
   135   140   141    1
   136   162   157   am
   137    52    51    1
   138   160   159    1
   139    76    77    1
   140   161   159    1
   141    69    68    1
   142   141   144    1
   143   141   142    1
   144   145   144    1
   145   145   146    1
   146    51    48    1
   147   157   158    2
   148   157   156    1
   149   142   143    2
   150   159   156    1
   151   146   147    1
   152    77    78    1
   153    46    43    1
   154   156   155    1
   155    70    68    1
   156    68    67    1
   157    48    47    1
   158    48    49    1
   159    47    44   am
   160    78    79    1
   161    42    43    1
   162    43    44    1
   163    67    64    1
   164    44    45    2
   165   155   150   am
   166    50    49    2
   167   151   150    2
   168   150   149    1
   169    64    63    1
   170    64    65    1
   171    66    65    2
   172    63    59   am
   173   149   148    1
   174   149   152    1
   175    62    61    1
   176   154   152    1
   177    57    58    1
   178    59    58    1
   179    59    60    2
   180   152   153    1
   181    61    58    1
