@<TRIPOS>MOLECULE
tmp/2bq4B01.pdb
 170 168 0 0 0
SMALL
GASTEIGER

@<TRIPOS>ATOM
      1  N         41.6940   -2.4830   11.4630 N.3    43  CYS43      -0.1221
      2  CA        41.2720   -1.9060   10.1950 C.3    43  CYS43       0.1808
      3  C         42.4490   -1.6240    9.2730 C.2    43  CYS43       0.2601
      4  O         42.4170   -1.9750    8.0940 O.2    43  CYS43      -0.2717
      5  CB        40.5100   -0.6180   10.4590 C.3    43  CYS43       0.0970
      6  SG        39.0490   -0.9100   11.4770 S.3    43  CYS43      -0.0800
      7  N         43.4790   -0.9840    9.8170 N.am   44  HIS44      -0.1961
      8  CA        44.7190   -0.7370    9.0920 C.3    44  HIS44       0.1787
      9  C         45.5730   -2.0000    9.1720 C.2    44  HIS44       0.2620
     10  O         46.6240   -2.0170    9.8120 O.2    44  HIS44      -0.2715
     11  CB        45.4670    0.4380    9.6970 C.3    44  HIS44       0.0785
     12  CG        44.6860    1.7140    9.7290 C.ar   44  HIS44       0.0821
     13  ND1       45.0270    2.8030    8.9620 N.ar   44  HIS44      -0.2267
     14  CD2       43.5900    2.0800   10.4320 C.ar   44  HIS44       0.1154
     15  CE1       44.1840    3.7900    9.1990 C.ar   44  HIS44       0.1986
     16  NE2       43.3100    3.3830   10.0980 N.ar   44  HIS44      -0.2212
     17  N         45.1030   -3.0480    8.5020 N.am   45  HIS45      -0.1959
     18  CA        45.6180   -4.4030    8.6730 C.3    45  HIS45       0.1787
     19  C         47.0060   -4.6420    8.0430 C.2    45  HIS45       0.2620
     20  O         47.6520   -5.6320    8.3690 O.2    45  HIS45      -0.2715
     21  CB        44.6020   -5.4180    8.1230 C.3    45  HIS45       0.0785
     22  CG        44.3890   -5.3110    6.6460 C.ar   45  HIS45       0.0821
     23  ND1       45.2220   -5.9220    5.7380 N.ar   45  HIS45      -0.2267
     24  CD2       43.4690   -4.6360    5.9180 C.ar   45  HIS45       0.1154
     25  CE1       44.8240   -5.6320    4.5130 C.ar   45  HIS45       0.1986
     26  NE2       43.7610   -4.8530    4.5910 N.ar   45  HIS45      -0.2212
     27  N         47.4330   -3.7670    7.1290 N.am   46  LYS46      -0.1963
     28  CA        48.7950   -3.8150    6.5670 C.3    46  LYS46       0.1728
     29  C         49.8040   -2.9280    7.3150 C.2    46  LYS46       0.2616
     30  O         50.9930   -2.8970    6.9740 O.2    46  LYS46      -0.2715
     31  CB        48.7720   -3.4110    5.0820 C.3    46  LYS46       0.0311
     32  CG        48.0450   -4.3800    4.1770 C.3    46  LYS46       0.0038
     33  CD        48.6790   -5.7660    4.1940 C.3    46  LYS46       0.0206
     34  CE        48.1500   -6.6330    3.0800 C.3    46  LYS46       0.1093
     35  NZ        48.7770   -7.9700    3.1170 N.3    46  LYS46      -0.1314
     36  N         49.3420   -2.1950    8.3240 N.am   47  TRP47      -0.1974
     37  CA        50.2220   -1.3260    9.1090 C.3    47  TRP47       0.1640
     38  C         51.2510   -2.1790    9.8580 C.2    47  TRP47       0.2290
     39  O         50.9000   -3.2000   10.4320 O.2    47  TRP47      -0.2864
     40  CB        49.3930   -0.5050   10.1100 C.3    47  TRP47       0.0576
     41  CG        50.1950    0.4850   10.9210 C.ar   47  TRP47       0.0006
     42  CD1       51.2030    1.2790   10.4730 C.ar   47  TRP47       0.0946
     43  CD2       50.0570    0.7670   12.3210 C.ar   47  TRP47       0.0152
     44  NE1       51.6970    2.0440   11.5010 N.ar   47  TRP47      -0.2442
     45  CE2       51.0160    1.7400   12.6510 C.ar   47  TRP47       0.0810
     46  CE3       49.2180    0.2890   13.3350 C.ar   47  TRP47       0.0012
     47  CZ2       51.1520    2.2520   13.9410 C.ar   47  TRP47       0.0191
     48  CZ3       49.3570    0.7960   14.6140 C.ar   47  TRP47       0.0001
     49  CH2       50.3090    1.7690   14.9060 C.ar   47  TRP47       0.0015
     50  N         48.1690    5.6720    6.8750 N.3    54  GLY54      -0.1210
     51  CA        47.4790    6.3120    5.7740 C.3    54  GLY54       0.1956
     52  C         46.0960    5.7200    5.5430 C.2    54  GLY54       0.2612
     53  O         45.5780    4.9400    6.3510 O.2    54  GLY54      -0.2717
     54  N         45.5030    6.1010    4.4220 N.am   55  GLY55      -0.1942
     55  CA        44.1790    5.6380    4.0430 C.3    55  GLY55       0.2014
     56  C         44.1980    4.2490    3.4260 C.2    55  GLY55       0.2639
     57  O         45.1870    3.5090    3.5300 O.2    55  GLY55      -0.2714
     58  N         43.0960    3.9070    2.7720 N.am   56  CYS56      -0.1967
     59  CA        42.8590    2.5560    2.2800 C.3    56  CYS56       0.1712
     60  C         43.0510    2.4260    0.7800 C.2    56  CYS56       0.2296
     61  O         43.1470    1.3090    0.2840 O.2    56  CYS56      -0.2864
     62  CB        41.4310    2.1190    2.6040 C.3    56  CYS56       0.0983
     63  SG        40.9340    2.2900    4.3320 S.3    56  CYS56      -0.0798
     64  N         45.3630    3.8500   -1.5950 N.3    58  THR58      -0.1218
     65  CA        46.6060    4.2170   -2.2790 C.3    58  THR58       0.1862
     66  C         47.0410    3.1230   -3.2430 C.2    58  THR58       0.2287
     67  O         46.4800    2.0350   -3.2430 O.2    58  THR58      -0.2866
     68  CB        47.7350    4.4930   -1.2670 C.3    58  THR58       0.1770
     69  OG1       48.0660    3.3000   -0.5520 O.3    58  THR58      -0.2211
     70  CG2       47.2880    5.4810   -0.1850 C.3    58  THR58       0.0375
     71  N         48.6120    0.0380   -4.7960 N.3    60  GLY60      -0.1210
     72  CA        48.9540   -1.2640   -4.2620 C.3    60  GLY60       0.1956
     73  C         47.9910   -1.7390   -3.1890 C.2    60  GLY60       0.2612
     74  O         48.1300   -2.8380   -2.6690 O.2    60  GLY60      -0.2717
     75  N         46.9960   -0.9090   -2.8910 N.am   61  CYS61      -0.1956
     76  CA        46.0120   -1.1790   -1.8540 C.3    61  CYS61       0.1843
     77  C         44.6160   -1.1970   -2.5220 C.2    61  CYS61       0.2625
     78  O         44.4540   -1.8440   -3.5570 O.2    61  CYS61      -0.2714
     79  CB        46.1580   -0.1370   -0.7370 C.3    61  CYS61       0.0997
     80  SG        47.8590    0.0210   -0.1160 S.3    61  CYS61      -0.0797
     81  N         43.6200   -0.4980   -1.9790 N.am   62  HIS62      -0.1973
     82  CA        42.2550   -0.5560   -2.5210 C.3    62  HIS62       0.1656
     83  C         41.9800    0.6390   -3.4180 C.2    62  HIS62       0.2291
     84  O         41.0640    1.4260   -3.1800 O.2    62  HIS62      -0.2864
     85  CB        41.2220   -0.6730   -1.3890 C.3    62  HIS62       0.0771
     86  CG        41.5310   -1.7780   -0.4400 C.ar   62  HIS62       0.0820
     87  ND1       41.5940   -3.0910   -0.8460 N.ar   62  HIS62      -0.2267
     88  CD2       41.8640   -1.7680    0.8720 C.ar   62  HIS62       0.1154
     89  CE1       41.9390   -3.8470    0.1770 C.ar   62  HIS62       0.1986
     90  NE2       42.1170   -3.0690    1.2310 N.ar   62  HIS62      -0.2212
     91  N         34.0790   -8.6340   -4.3400 N.3    73  LYS73      -0.1245
     92  CA        34.9990   -9.4770   -3.5720 C.3    73  LYS73       0.1561
     93  C         36.4740   -9.3270   -3.9610 C.2    73  LYS73       0.2260
     94  O         37.3600   -9.7340   -3.1980 O.2    73  LYS73      -0.2867
     95  CB        34.5790  -10.9450   -3.6800 C.3    73  LYS73       0.0271
     96  CG        33.1610  -11.1840   -3.2000 C.3    73  LYS73       0.0035
     97  CD        32.8800  -12.6590   -2.9090 C.3    73  LYS73       0.0206
     98  CE        32.1520  -12.8480   -1.5850 C.3    73  LYS73       0.1093
     99  NZ        31.1450  -13.9480   -1.6410 N.3    73  LYS73      -0.1314
    100  N         39.7360   -7.6790   -3.9390 N.3    75  PRO75      -0.2116
    101  CA        40.3150   -6.6580   -3.0500 C.3    75  PRO75       0.1372
    102  C         41.0180   -5.4740   -3.7240 C.2    75  PRO75       0.2244
    103  O         41.4040   -4.5600   -3.0030 O.2    75  PRO75      -0.2868
    104  CB        41.3340   -7.4480   -2.2250 C.3    75  PRO75       0.0268
    105  CG        40.9980   -8.8640   -2.4210 C.3    75  PRO75       0.0207
    106  CD        40.4230   -8.9750   -3.7810 C.3    75  PRO75       0.0892
    107  N         35.2270   -3.3000   -1.9300 N.3    80  THR80      -0.1203
    108  CA        35.5280   -4.5100   -1.1670 C.3    80  THR80       0.1994
    109  C         35.9720   -4.2050    0.2650 C.2    80  THR80       0.2618
    110  O         35.5330   -4.8530    1.2070 O.2    80  THR80      -0.2717
    111  CB        36.6090   -5.3090   -1.9090 C.3    80  THR80       0.1784
    112  OG1       36.1920   -5.5180   -3.2670 O.3    80  THR80      -0.2211
    113  CG2       36.7640   -6.7050   -1.3300 C.3    80  THR80       0.0376
    114  N         36.8280   -3.1990    0.4010 N.am   81  ALA81      -0.1965
    115  CA        37.3650   -2.7750    1.6940 C.3    81  ALA81       0.1728
    116  C         36.3080   -2.2960    2.6830 C.2    81  ALA81       0.2616
    117  O         36.5200   -2.3830    3.8930 O.2    81  ALA81      -0.2715
    118  CB        38.3920   -1.6770    1.4760 C.3    81  ALA81       0.0334
    119  N         35.2010   -1.7470    2.1800 N.am   82  PHE82      -0.1974
    120  CA        34.1400   -1.2490    3.0540 C.3    82  PHE82       0.1639
    121  C         32.9490   -2.2130    3.2330 C.2    82  PHE82       0.2290
    122  O         32.1410   -2.0300    4.1380 O.2    82  PHE82      -0.2864
    123  CB        33.6450    0.1090    2.5400 C.3    82  PHE82       0.0560
    124  CG        34.7120    1.1940    2.4970 C.ar   82  PHE82      -0.0200
    125  CD1       34.6340    2.2120    1.5540 C.ar   82  PHE82      -0.0042
    126  CD2       35.7770    1.2130    3.4010 C.ar   82  PHE82      -0.0042
    127  CE1       35.5830    3.2180    1.5030 C.ar   82  PHE82      -0.0003
    128  CE2       36.7410    2.2390    3.3540 C.ar   82  PHE82      -0.0003
    129  CZ        36.6410    3.2340    2.4070 C.ar   82  PHE82      -0.0000
    130  N         32.9620   -6.1600    2.2760 N.3    84  SER84      -0.1202
    131  CA        33.0580   -7.6190    2.1950 C.3    84  SER84       0.2020
    132  C         32.7210   -8.2730    3.5310 C.2    84  SER84       0.2619
    133  O         32.6150   -7.6010    4.5520 O.2    84  SER84      -0.2717
    134  CB        34.4290   -8.0810    1.7030 C.3    84  SER84       0.2103
    135  OG        35.3850   -8.1310    2.7390 O.3    84  SER84      -0.2182
    136  N         32.5640   -9.5930    3.5050 N.am   85  LYS85      -0.1965
    137  CA        32.3110  -10.3850    4.7110 C.3    85  LYS85       0.1728
    138  C         33.4690  -10.4110    5.7250 C.2    85  LYS85       0.2616
    139  O         33.2920  -10.8470    6.8660 O.2    85  LYS85      -0.2715
    140  CB        31.9130  -11.8130    4.3000 C.3    85  LYS85       0.0311
    141  CG        30.5160  -11.8740    3.7180 C.3    85  LYS85       0.0038
    142  CD        30.2020  -13.2410    3.1170 C.3    85  LYS85       0.0206
    143  CE        28.7140  -13.4000    2.8550 C.3    85  LYS85       0.1093
    144  NZ        28.3790  -14.7000    2.2040 N.3    85  LYS85      -0.1314
    145  N         34.6430   -9.9330    5.3180 N.am   86  SER86      -0.1950
    146  CA        35.8020   -9.7910    6.2060 C.3    86  SER86       0.1924
    147  C         35.5060   -8.8780    7.3970 C.2    86  SER86       0.2314
    148  O         34.8410   -7.8660    7.2150 O.2    86  SER86      -0.2863
    149  CB        36.9450   -9.1610    5.4210 C.3    86  SER86       0.2116
    150  OG        38.0430   -8.8270    6.2610 O.3    86  SER86      -0.2180
    151  N         37.4240   -6.8100    8.6320 N.3    88  MET88      -0.1230
    152  CA        38.1950   -5.5880    8.4300 C.3    88  MET88       0.1702
    153  C         37.3770   -4.5570    7.6280 C.2    88  MET88       0.2593
    154  O         37.7840   -3.4040    7.4940 O.2    88  MET88      -0.2718
    155  CB        39.5130   -5.9280    7.7340 C.3    88  MET88       0.0401
    156  CG        40.2390   -7.1080    8.3860 C.3    88  MET88       0.0596
    157  SD        41.8550   -7.4220    7.7720 S.3    88  MET88      -0.1393
    158  CE        41.5530   -7.6860    6.0770 C.3    88  MET88       0.0692
    159  N         36.2230   -4.9700    7.1060 N.am   89  SER89      -0.1938
    160  CA        35.3290   -4.0690    6.3740 C.3    89  SER89       0.2055
    161  C         34.2560   -3.5010    7.3030 C.2    89  SER89       0.2643
    162  O         33.9630   -4.0730    8.3460 O.2    89  SER89      -0.2714
    163  CB        34.6730   -4.7930    5.1900 C.3    89  SER89       0.2130
    164  OG        33.3560   -5.2110    5.4920 O.3    89  SER89      -0.2179
    165  N         33.6780   -2.3680    6.9160 N.am   90  CYS90      -0.1967
    166  CA        32.6350   -1.7290    7.7110 C.3    90  CYS90       0.1712
    167  C         31.4640   -2.6730    7.9450 C.2    90  CYS90       0.2296
    168  O         31.0550   -2.8990    9.0860 O.2    90  CYS90      -0.2864
    169  CB        32.0930   -0.4790    7.0150 C.3    90  CYS90       0.0983
    170  SG        33.3220    0.6330    6.3000 S.3    90  CYS90      -0.0798
@<TRIPOS>BOND
     1    71    72    1
     2    91    92    1
     3    72    73    1
     4    93    92    1
     5    93    94    2
     6   100   106    1
     7   100   101    1
     8   106   105    1
     9   102   101    1
    10   102   103    2
    11    95    92    1
    12    95    96    1
    13    78    77    2
    14    83    84    2
    15    83    82    1
    16   112   111    1
    17    67    66    2
    18    66    65    1
    19    96    97    1
    20    73    75   am
    21    73    74    2
    22   101   104    1
    23    97    98    1
    24    75    76    1
    25    77    81   am
    26    77    76    1
    27    82    81    1
    28    82    85    1
    29   105   104    1
    30    65    64    1
    31    65    68    1
    32   107   108    1
    33   111   113    1
    34   111   108    1
    35    76    79    1
    36    99    98    1
    37    85    86    1
    38    68    69    1
    39    68    70    1
    40   108   109    1
    41    87    86   ar
    42    87    89   ar
    43    79    80    1
    44    86    88   ar
    45    89    90   ar
    46   109   114   am
    47   109   110    2
    48    61    60    2
    49   114   115    1
    50    60    59    1
    51    88    90   ar
    52   118   115    1
    53   127   125   ar
    54   127   129   ar
    55   125   124   ar
    56   115   116    1
    57   134   131    1
    58   134   135    1
    59   119   116   am
    60   119   120    1
    61   131   130    1
    62   131   132    1
    63   144   143    1
    64    59    62    1
    65    59    58    1
    66   129   128   ar
    67   124   123    1
    68   124   126   ar
    69   123   120    1
    70    62    63    1
    71   116   117    2
    72    58    56   am
    73   143   142    1
    74   120   121    1
    75    34    35    1
    76    34    33    1
    77   142   141    1
    78   121   122    2
    79   128   126   ar
    80    56    57    2
    81    56    55    1
    82   136   132   am
    83   136   137    1
    84   132   133    2
    85   141   140    1
    86    55    54    1
    87    32    33    1
    88    32    31    1
    89   140   137    1
    90    54    52   am
    91    25    26   ar
    92    25    23   ar
    93    26    24   ar
    94   137   138    1
    95    31    28    1
    96   163   164    1
    97   163   160    1
    98   145   138   am
    99   145   146    1
   100   149   146    1
   101   149   150    1
   102    52    51    1
   103    52    53    2
   104   138   139    2
   105    23    22   ar
   106    51    50    1
   107    24    22   ar
   108   158   157    1
   109   146   147    1
   110   170   169    1
   111   160   159    1
   112   160   161    1
   113    28    27    1
   114    28    29    1
   115    22    21    1
   116   165   161   am
   117   165   166    1
   118    30    29    2
   119   169   166    1
   120   159   153   am
   121    27    19   am
   122   148   147    2
   123   161   162    2
   124    29    36   am
   125   154   153    2
   126   153   152    1
   127   166   167    1
   128   155   156    1
   129   155   152    1
   130   157   156    1
   131   167   168    2
   132    19    20    2
   133    19    18    1
   134     4     3    2
   135    21    18    1
   136    36    37    1
   137   152   151    1
   138    17    18    1
   139    17     9   am
   140    13    15   ar
   141    13    12   ar
   142     8     9    1
   143     8    11    1
   144     8     7    1
   145    37    38    1
   146    37    40    1
   147     9    10    2
   148    15    16   ar
   149     3     7   am
   150     3     2    1
   151    11    12    1
   152    12    14   ar
   153    38    39    2
   154    16    14   ar
   155    40    41    1
   156     2     5    1
   157     2     1    1
   158     5     6    1
   159    42    41   ar
   160    42    44   ar
   161    41    43   ar
   162    44    45   ar
   163    43    45   ar
   164    43    46   ar
   165    45    47   ar
   166    46    48   ar
   167    47    49   ar
   168    48    49   ar
