@<TRIPOS>MOLECULE
tmp/2bq4B03.pdb
 189 185 0 0 0
SMALL
GASTEIGER

@<TRIPOS>ATOM
      1  N         33.7480    9.8920    4.5750 N.3     9  ILE9       -0.1231
      2  CA        34.3510    9.0490    3.5490 C.3     9  ILE9        0.1692
      3  C         33.5660    9.2150    2.2490 C.2     9  ILE9        0.2592
      4  O         32.3830    8.8600    2.1760 O.2     9  ILE9       -0.2718
      5  CB        34.3620    7.5580    3.9970 C.3     9  ILE9        0.0266
      6  CG1       35.1260    7.4090    5.3110 C.3     9  ILE9        0.0019
      7  CG2       35.0020    6.6600    2.9200 C.3     9  ILE9        0.0020
      8  CD1       35.0750    6.0040    5.8990 C.3     9  ILE9        0.0001
      9  N         34.2320    9.7630    1.2360 N.am   10  ASP10      -0.1960
     10  CA        33.6020   10.0660   -0.0490 C.3    10  ASP10       0.1840
     11  C         34.6430   10.0170   -1.1710 C.2    10  ASP10       0.2622
     12  O         35.0730   11.0420   -1.6960 O.2    10  ASP10      -0.2715
     13  CB        32.9120   11.4300    0.0180 C.3    10  ASP10       0.1450
     14  CG        32.1720   11.7800   -1.2540 C.2    10  ASP10       0.3671
     15  OD1       31.8070   10.8630   -2.0360 O.co2  10  ASP10      -0.2456
     16  OD2       31.9370   12.9710   -1.5630 O.co2  10  ASP10      -0.2456
     17  N         35.0830    8.8060   -1.4820 N.am   11  HIS11      -0.1959
     18  CA        36.0480    8.5480   -2.5370 C.3    11  HIS11       0.1787
     19  C         35.4230    8.0850   -3.8460 C.2    11  HIS11       0.2620
     20  O         36.0830    8.1140   -4.8780 O.2    11  HIS11      -0.2715
     21  CB        36.9930    7.4470   -2.0920 C.3    11  HIS11       0.0785
     22  CG        37.7660    7.7730   -0.8540 C.ar   11  HIS11       0.0821
     23  ND1       38.8950    8.5600   -0.8690 N.ar   11  HIS11      -0.2267
     24  CD2       37.5930    7.3870    0.4320 C.ar   11  HIS11       0.1154
     25  CE1       39.3750    8.6590    0.3570 C.ar   11  HIS11       0.1986
     26  NE2       38.5970    7.9670    1.1680 N.ar   11  HIS11      -0.2212
     27  N         34.1770    7.6190   -3.7850 N.am   12  LEU12      -0.1977
     28  CA        33.4770    7.0440   -4.9350 C.3    12  LEU12       0.1596
     29  C         32.4140    8.0060   -5.4570 C.2    12  LEU12       0.2287
     30  O         31.8350    8.7760   -4.6830 O.2    12  LEU12      -0.2864
     31  CB        32.8290    5.7070   -4.5440 C.3    12  LEU12       0.0297
     32  CG        33.7720    4.6340   -3.9860 C.3    12  LEU12       0.0022
     33  CD1       33.0080    3.4350   -3.4660 C.3    12  LEU12       0.0001
     34  CD2       34.7570    4.1950   -5.0360 C.3    12  LEU12       0.0001
     35  N         29.2900    7.2440   -7.6930 N.3    14  ASN14      -0.1240
     36  CA        28.4100    6.3410   -8.4340 C.3    14  ASN14       0.1653
     37  C         27.7700    7.0960   -9.5990 C.2    14  ASN14       0.2266
     38  O         27.0940    8.1040   -9.3720 O.2    14  ASN14      -0.2867
     39  CB        27.3240    5.7840   -7.5100 C.3    14  ASN14       0.1155
     40  CG        26.7140    4.5090   -8.0300 C.2    14  ASN14       0.2627
     41  OD1       26.5320    4.3380   -9.2400 O.2    14  ASN14      -0.2716
     42  ND2       26.4180    3.5850   -7.1220 N.am   14  ASN14      -0.0877
     43  N         22.4720    6.2660   -5.9810 N.3    19  LEU19      -0.1231
     44  CA        23.2480    5.3090   -5.1860 C.3    19  LEU19       0.1693
     45  C         24.6540    5.8150   -4.8800 C.2    19  LEU19       0.2592
     46  O         25.5700    5.0210   -4.6440 O.2    19  LEU19      -0.2718
     47  CB        23.3180    3.9630   -5.9130 C.3    19  LEU19       0.0284
     48  CG        21.9640    3.4290   -6.3880 C.3    19  LEU19       0.0019
     49  CD1       22.1790    2.1580   -7.1960 C.3    19  LEU19       0.0001
     50  CD2       21.0200    3.2010   -5.2130 C.3    19  LEU19       0.0001
     51  N         24.8180    7.1360   -4.8850 N.am   20  GLU20      -0.1966
     52  CA        26.0560    7.7700   -4.4490 C.3    20  GLU20       0.1733
     53  C         25.9090    8.1110   -2.9720 C.2    20  GLU20       0.2616
     54  O         24.8910    8.6630   -2.5700 O.2    20  GLU20      -0.2715
     55  CB        26.3170    9.0380   -5.2570 C.3    20  GLU20       0.0429
     56  CG        27.7470    9.5390   -5.1690 C.3    20  GLU20       0.1163
     57  CD        27.9830   10.5190   -4.0390 C.2    20  GLU20       0.3649
     58  OE1       27.0870   11.3250   -3.7170 O.co2  20  GLU20      -0.2457
     59  OE2       29.0890   10.4830   -3.4720 O.co2  20  GLU20      -0.2457
     60  N         26.9030    7.7490   -2.1630 N.am   21  TYR21      -0.1974
     61  CA        26.8510    7.9810   -0.7200 C.3    21  TYR21       0.1639
     62  C         28.0870    8.7030   -0.2030 C.2    21  TYR21       0.2290
     63  O         29.1450    8.6730   -0.8170 O.2    21  TYR21      -0.2864
     64  CB        26.6650    6.6550    0.0220 C.3    21  TYR21       0.0560
     65  CG        25.4930    5.8570   -0.5020 C.ar   21  TYR21      -0.0198
     66  CD1       25.6860    4.6700   -1.2020 C.ar   21  TYR21      -0.0009
     67  CD2       24.1930    6.3060   -0.3210 C.ar   21  TYR21      -0.0009
     68  CE1       24.6160    3.9460   -1.6910 C.ar   21  TYR21       0.0417
     69  CE2       23.1120    5.5900   -0.8090 C.ar   21  TYR21       0.0417
     70  CZ        23.3320    4.4110   -1.4940 C.ar   21  TYR21       0.1957
     71  OH        22.2640    3.6940   -1.9780 O.3    21  TYR21      -0.2866
     72  N         29.7920    8.9660    3.6260 N.3    23  VAL23      -0.1245
     73  CA        29.5550    8.1650    4.8190 C.3    23  VAL23       0.1561
     74  C         30.4190    8.6330    5.9790 C.2    23  VAL23       0.2260
     75  O         31.6380    8.5630    5.9240 O.2    23  VAL23      -0.2867
     76  CB        29.8410    6.6720    4.5660 C.3    23  VAL23       0.0252
     77  CG1       29.5450    5.8420    5.8230 C.3    23  VAL23       0.0019
     78  CG2       29.0380    6.1630    3.3810 C.3    23  VAL23       0.0019
     79  N         31.0750   -0.5650   -8.3470 N.3    68  PHE68      -0.1241
     80  CA        30.0450    0.0430   -7.4960 C.3    68  PHE68       0.1605
     81  C         29.1140   -1.0390   -6.9340 C.2    68  PHE68       0.2264
     82  O         27.9600   -0.7740   -6.6040 O.2    68  PHE68      -0.2867
     83  CB        29.2770    1.1280   -8.2740 C.3    68  PHE68       0.0534
     84  CG        30.1370    2.3010   -8.6400 C.ar   68  PHE68      -0.0203
     85  CD1       30.7950    2.3450   -9.8650 C.ar   68  PHE68      -0.0042
     86  CD2       30.3460    3.3390   -7.7320 C.ar   68  PHE68      -0.0042
     87  CE1       31.6250    3.4190  -10.1810 C.ar   68  PHE68      -0.0003
     88  CE2       31.1710    4.4060   -8.0500 C.ar   68  PHE68      -0.0003
     89  CZ        31.8020    4.4510   -9.2770 C.ar   68  PHE68      -0.0000
     90  N         28.1360   -3.5510   -3.9810 N.3    70  ALA70      -0.1245
     91  CA        28.2510   -3.8890   -2.5600 C.3    70  ALA70       0.1562
     92  C         28.7530   -5.3190   -2.3480 C.2    70  ALA70       0.2260
     93  O         29.3230   -5.6290   -1.3090 O.2    70  ALA70      -0.2867
     94  CB        26.9080   -3.7080   -1.8690 C.3    70  ALA70       0.0290
     95  N         35.4600   -0.7090   -2.9320 N.3    79  MET79      -0.1245
     96  CA        34.1550   -1.1920   -2.4700 C.3    79  MET79       0.1570
     97  C         34.3090   -2.4110   -1.5640 C.2    79  MET79       0.2261
     98  O         33.6290   -2.5280   -0.5570 O.2    79  MET79      -0.2867
     99  CB        33.2370   -1.5310   -3.6550 C.3    79  MET79       0.0387
    100  CG        32.4890   -0.3450   -4.2160 C.3    79  MET79       0.0595
    101  SD        31.3550    0.4520   -3.0390 S.3    79  MET79      -0.1393
    102  CE        30.0390   -0.7040   -3.1100 C.3    79  MET79       0.0692
    103  N         35.2010   -1.7470    2.1800 N.3    82  PHE82      -0.1227
    104  CA        34.1400   -1.2490    3.0540 C.3    82  PHE82       0.1736
    105  C         32.9490   -2.2130    3.2330 C.2    82  PHE82       0.2595
    106  O         32.1410   -2.0300    4.1380 O.2    82  PHE82      -0.2718
    107  CB        33.6450    0.1090    2.5400 C.3    82  PHE82       0.0547
    108  CG        34.7120    1.1940    2.4970 C.ar   82  PHE82      -0.0202
    109  CD1       34.6340    2.2120    1.5540 C.ar   82  PHE82      -0.0042
    110  CD2       35.7770    1.2130    3.4010 C.ar   82  PHE82      -0.0042
    111  CE1       35.5830    3.2180    1.5030 C.ar   82  PHE82      -0.0003
    112  CE2       36.7410    2.2390    3.3540 C.ar   82  PHE82      -0.0003
    113  CZ        36.6410    3.2340    2.4070 C.ar   82  PHE82      -0.0000
    114  N         32.8570   -3.2470    2.3980 N.am   83  HIS83      -0.1975
    115  CA        31.6470   -4.0680    2.3330 C.3    83  HIS83       0.1656
    116  C         31.7780   -5.5840    2.4680 C.2    83  HIS83       0.2291
    117  O         30.7780   -6.2390    2.7520 O.2    83  HIS83      -0.2864
    118  CB        30.9340   -3.7970    1.0220 C.3    83  HIS83       0.0771
    119  CG        30.4270   -2.4030    0.8860 C.ar   83  HIS83       0.0820
    120  ND1       30.9350   -1.5200   -0.0410 N.ar   83  HIS83      -0.2267
    121  CD2       29.4480   -1.7380    1.5460 C.ar   83  HIS83       0.1154
    122  CE1       30.2800   -0.3750    0.0450 C.ar   83  HIS83       0.1986
    123  NE2       29.3730   -0.4810    0.9990 N.ar   83  HIS83      -0.2212
    124  N         33.6780   -2.3680    6.9160 N.3    90  CYS90      -0.1221
    125  CA        32.6350   -1.7290    7.7110 C.3    90  CYS90       0.1808
    126  C         31.4640   -2.6730    7.9450 C.2    90  CYS90       0.2601
    127  O         31.0550   -2.8990    9.0860 O.2    90  CYS90      -0.2717
    128  CB        32.0930   -0.4790    7.0150 C.3    90  CYS90       0.0970
    129  SG        33.3220    0.6330    6.3000 S.3    90  CYS90      -0.0800
    130  N         30.9210   -3.2060    6.8540 N.am   91  GLN91      -0.1979
    131  CA        29.7450   -4.0640    6.9230 C.3    91  GLN91       0.1601
    132  C         30.0760   -5.3820    7.6180 C.2    91  GLN91       0.2287
    133  O         29.3100   -5.8560    8.4460 O.2    91  GLN91      -0.2864
    134  CB        29.1830   -4.3440    5.5170 C.3    91  GLN91       0.0394
    135  CG        27.8190   -5.0530    5.5160 C.3    91  GLN91       0.0908
    136  CD        27.2460   -5.2860    4.1130 C.2    91  GLN91       0.2608
    137  OE1       26.0270   -5.4020    3.9440 O.2    91  GLN91      -0.2717
    138  NE2       28.1200   -5.3690    3.1140 N.am   91  GLN91      -0.0878
    139  N         30.6940   -5.0170   11.5440 N.3    94  HIS94      -0.1241
    140  CA        29.4490   -4.7040   12.2260 C.3    94  HIS94       0.1621
    141  C         28.5540   -5.9470   12.2820 C.2    94  HIS94       0.2264
    142  O         27.9730   -6.2480   13.3170 O.2    94  HIS94      -0.2867
    143  CB        28.7190   -3.5470   11.5400 C.3    94  HIS94       0.0745
    144  CG        29.3840   -2.2160   11.7180 C.ar   94  HIS94       0.0817
    145  ND1       28.8820   -1.0640   11.1600 N.ar   94  HIS94      -0.2268
    146  CD2       30.5090   -1.8530   12.3820 C.ar   94  HIS94       0.1154
    147  CE1       29.6580   -0.0460   11.4760 C.ar   94  HIS94       0.1986
    148  NE2       30.6540   -0.4940   12.2220 N.ar   94  HIS94      -0.2212
    149  N         26.1350    0.3330   12.5680 N.3   106  PRO106     -0.2102
    150  CA        25.0120   -0.0500   11.7080 C.3   106  PRO106      0.1504
    151  C         25.3470   -1.1740   10.7290 C.2   106  PRO106      0.2576
    152  O         26.4190   -1.1860   10.1290 O.2   106  PRO106     -0.2718
    153  CB        24.6720    1.2430   10.9620 C.3   106  PRO106      0.0282
    154  CG        25.8770    2.1130   11.0810 C.3   106  PRO106      0.0208
    155  CD        26.5370    1.7370   12.3650 C.3   106  PRO106      0.0893
    156  N         24.4190   -2.1170   10.5930 N.am  107  THR107     -0.1939
    157  CA        24.5850   -3.2700    9.7110 C.3   107  THR107      0.2028
    158  C         23.8200   -3.1300    8.3940 C.2   107  THR107      0.2642
    159  O         24.2170   -3.7270    7.3980 O.2   107  THR107     -0.2714
    160  CB        24.1350   -4.5670   10.4230 C.3   107  THR107      0.1808
    161  OG1       22.8530   -4.3810   11.0390 O.3   107  THR107     -0.2208
    162  CG2       25.0680   -4.9050   11.5830 C.3   107  THR107      0.0379
    163  N         22.7420   -2.3460    8.3970 N.am  108  ALA108     -0.1963
    164  CA        21.8920   -2.1520    7.2120 C.3   108  ALA108      0.1728
    165  C         22.4590   -1.0600    6.3040 C.2   108  ALA108      0.2616
    166  O         23.0820   -0.1210    6.7830 O.2   108  ALA108     -0.2715
    167  CB        20.4710   -1.7910    7.6350 C.3   108  ALA108      0.0334
    168  N         22.2310   -1.1820    4.9960 N.am  109  CYS109     -0.1968
    169  CA        22.8180   -0.2650    4.0060 C.3   109  CYS109      0.1712
    170  C         22.5160    1.1960    4.3110 C.2   109  CYS109      0.2296
    171  O         23.4230    2.0200    4.4260 O.2   109  CYS109     -0.2864
    172  CB        22.3180   -0.5610    2.5830 C.3   109  CYS109      0.0983
    173  SG        22.1230   -2.2990    2.1330 S.3   109  CYS109     -0.0798
    174  N         23.9260    2.8420    7.6200 N.3   112  CYS112     -0.1221
    175  CA        25.3280    3.2430    7.5430 C.3   112  CYS112      0.1808
    176  C         25.5610    4.4310    6.6120 C.2   112  CYS112      0.2601
    177  O         26.2670    5.3600    6.9760 O.2   112  CYS112     -0.2717
    178  CB        26.2110    2.0860    7.1030 C.3   112  CYS112      0.0970
    179  SG        27.9420    2.5500    7.1760 S.3   112  CYS112     -0.0800
    180  N         24.9880    4.3990    5.4110 N.am  113  HIS113     -0.1975
    181  CA        25.2290    5.4650    4.4300 C.3   113  HIS113      0.1656
    182  C         24.6180    6.7940    4.8580 C.2   113  HIS113      0.2291
    183  O         25.1840    7.8530    4.5890 O.2   113  HIS113     -0.2864
    184  CB        24.6530    5.1330    3.0460 C.3   113  HIS113      0.0771
    185  CG        25.2190    3.9000    2.4140 C.ar  113  HIS113      0.0820
    186  ND1       24.4130    2.9350    1.8580 N.ar  113  HIS113     -0.2267
    187  CD2       26.4940    3.4870    2.2160 C.ar  113  HIS113      0.1154
    188  CE1       25.1630    1.9690    1.3630 C.ar  113  HIS113      0.1986
    189  NE2       26.4320    2.2760    1.5680 N.ar  113  HIS113     -0.2212
@<TRIPOS>BOND
     1    87    85   ar
     2    87    89   ar
     3    85    84   ar
     4    37    38    2
     5    37    36    1
     6    89    88   ar
     7    41    40    2
     8    84    83    1
     9    84    86   ar
    10    36    35    1
    11    36    39    1
    12    79    80    1
    13    83    80    1
    14    88    86   ar
    15    40    39    1
    16    40    42   am
    17    80    81    1
    18    49    48    1
    19    81    82    2
    20    48    47    1
    21    48    50    1
    22    43    44    1
    23    47    44    1
    24    29    28    1
    25    29    30    2
    26    55    56    1
    27    55    52    1
    28    44    45    1
    29    56    57    1
    30    34    32    1
    31    28    31    1
    32    28    27    1
    33    51    45   am
    34    51    52    1
    35    45    46    2
    36    20    19    2
    37    31    32    1
    38    52    53    1
    39   100    99    1
    40   100   101    1
    41    57    58   ar
    42    57    59   ar
    43    32    33    1
    44    90    91    1
    45    19    27   am
    46    19    18    1
    47    99    96    1
    48   102   101    1
    49    53    54    2
    50    53    60   am
    51    95    96    1
    52    91    92    1
    53    91    94    1
    54    18    21    1
    55    18    17    1
    56    96    97    1
    57    92    93    2
    58    60    61    1
    59    21    22    1
    60    15    14   ar
    61    71    70    1
    62    12    11    2
    63    68    70   ar
    64    68    66   ar
    65    97    98    2
    66    16    14   ar
    67    70    69   ar
    68    17    11   am
    69    14    13    1
    70    66    65   ar
    71    11    10    1
    72    23    22   ar
    73    23    25   ar
    74    22    24   ar
    75    63    62    2
    76    69    67   ar
    77    61    62    1
    78    61    64    1
    79    65    67   ar
    80    65    64    1
    81    10    13    1
    82    10     9    1
    83   120   122   ar
    84   120   119   ar
    85   122   123   ar
    86    25    26   ar
    87    24    26   ar
    88   119   118    1
    89   119   121   ar
    90   123   121   ar
    91   118   115    1
    92     9     3   am
    93   188   189   ar
    94   188   186   ar
    95   111   109   ar
    96   111   113   ar
    97   109   108   ar
    98   189   187   ar
    99   186   185   ar
   100   173   172    1
   101     4     3    2
   102   103   104    1
   103   187   185   ar
   104     3     2    1
   105   115   114    1
   106   115   116    1
   107   114   105   am
   108   113   112   ar
   109   185   184    1
   110   116   117    2
   111   108   107    1
   112   108   110   ar
   113   107   104    1
   114   172   169    1
   115     7     5    1
   116   184   181    1
   117   104   105    1
   118   138   136   am
   119   105   106    2
   120   112   110   ar
   121    78    76    1
   122     2     5    1
   123     2     1    1
   124    72    73    1
   125   137   136    2
   126     5     6    1
   127   169   170    1
   128   169   168    1
   129   136   135    1
   130   170   171    2
   131   181   182    1
   132   181   180    1
   133    76    73    1
   134    76    77    1
   135   183   182    2
   136    73    74    1
   137   168   165   am
   138     6     8    1
   139   180   176   am
   140   135   134    1
   141   134   131    1
   142    75    74    2
   143   129   128    1
   144   165   166    2
   145   165   164    1
   146   176   177    2
   147   176   175    1
   148   130   131    1
   149   130   126   am
   150   124   125    1
   151   131   132    1
   152   128   125    1
   153   178   179    1
   154   178   175    1
   155   164   167    1
   156   164   163    1
   157   159   158    2
   158   175   174    1
   159   132   133    2
   160   125   126    1
   161   126   127    2
   162   158   163   am
   163   158   157    1
   164   157   160    1
   165   157   156    1
   166   152   151    2
   167   160   161    1
   168   160   162    1
   169   156   151   am
   170   151   150    1
   171   153   154    1
   172   153   150    1
   173   154   155    1
   174   145   147   ar
   175   145   144   ar
   176   147   148   ar
   177   143   144    1
   178   143   140    1
   179   139   140    1
   180   150   149    1
   181   144   146   ar
   182   148   146   ar
   183   140   141    1
   184   141   142    2
   185   155   149    1
