@<TRIPOS>MOLECULE
tmp/2bq6B00.pdb
 214 211 0 0 0
SMALL
GASTEIGER

@<TRIPOS>ATOM
      1  N         13.2030    9.2330   13.6240 N.3    42  HIS42      -0.1241
      2  CA        11.7520    9.2590   13.6500 C.3    42  HIS42       0.1621
      3  C         11.2100   10.6690   13.8690 C.2    42  HIS42       0.2264
      4  O         10.0730   10.9620   13.5120 O.2    42  HIS42      -0.2867
      5  CB        11.2120    8.2590   14.6900 C.3    42  HIS42       0.0745
      6  CG        11.2170    8.7480   16.1080 C.ar   42  HIS42       0.0817
      7  ND1       10.1990    9.5130   16.6350 N.ar   42  HIS42      -0.2268
      8  CD2       12.0550    8.4830   17.1380 C.ar   42  HIS42       0.1154
      9  CE1       10.4040    9.6900   17.9280 C.ar   42  HIS42       0.1986
     10  NE2       11.5240    9.0740   18.2590 N.ar   42  HIS42      -0.2212
     11  N         10.8660    2.9460    9.7930 N.3    82  LYS82      -0.1231
     12  CA         9.6890    3.2170   10.6160 C.3    82  LYS82       0.1693
     13  C          9.0390    1.9240   11.1150 C.2    82  LYS82       0.2592
     14  O          8.3800    1.8990   12.1550 O.2    82  LYS82      -0.2718
     15  CB         8.6690    4.0150    9.7900 C.3    82  LYS82       0.0285
     16  CG         7.5580    4.7040   10.5950 C.3    82  LYS82       0.0035
     17  CD         8.0130    6.0580   11.1910 C.3    82  LYS82       0.0206
     18  CE         6.8510    6.8040   11.8790 C.3    82  LYS82       0.1093
     19  NZ         7.2360    8.1130   12.4950 N.3    82  LYS82      -0.1314
     20  N          9.2370    0.8500   10.3640 N.am   83  GLU83      -0.1966
     21  CA         8.6510   -0.4380   10.7050 C.3    83  GLU83       0.1733
     22  C          9.1420   -1.0340   12.0090 C.2    83  GLU83       0.2617
     23  O          8.4070   -1.7670   12.6770 O.2    83  GLU83      -0.2715
     24  CB         8.9020   -1.4390    9.5730 C.3    83  GLU83       0.0429
     25  CG         8.2130   -1.0740    8.2640 C.3    83  GLU83       0.1163
     26  CD         6.7150   -0.8420    8.4400 C.2    83  GLU83       0.3649
     27  OE1        6.0090   -1.7820    8.8840 O.co2  83  GLU83      -0.2457
     28  OE2        6.2510    0.2840    8.1370 O.co2  83  GLU83      -0.2457
     29  N         10.3800   -0.7070   12.3690 N.am   84  THR84      -0.1937
     30  CA        11.0000   -1.2400   13.5750 C.3    84  THR84       0.2028
     31  C         11.7650   -0.1860   14.3500 C.2    84  THR84       0.2642
     32  O         12.2050   -0.4310   15.4710 O.2    84  THR84      -0.2714
     33  CB        11.9830   -2.3440   13.2060 C.3    84  THR84       0.1808
     34  OG1       12.9430   -1.8190   12.2790 O.3    84  THR84      -0.2208
     35  CG2       11.2490   -3.5200   12.5630 C.3    84  THR84       0.0379
     36  N         11.9270    0.9800   13.7350 N.am   85  TYR85      -0.1973
     37  CA        12.6540    2.0870   14.3390 C.3    85  TYR85       0.1639
     38  C         14.1080    1.7540   14.4380 C.2    85  TYR85       0.2290
     39  O         14.8480    2.3900   15.1780 O.2    85  TYR85      -0.2864
     40  CB        12.1160    2.4020   15.7260 C.3    85  TYR85       0.0560
     41  CG        10.9750    3.3560   15.6660 C.ar   85  TYR85      -0.0198
     42  CD1        9.9430    3.1590   14.7590 C.ar   85  TYR85      -0.0009
     43  CD2       10.9410    4.4860   16.4730 C.ar   85  TYR85      -0.0009
     44  CE1        8.9060    4.0670   14.6450 C.ar   85  TYR85       0.0417
     45  CE2        9.9020    5.4060   16.3710 C.ar   85  TYR85       0.0417
     46  CZ         8.8890    5.1880   15.4480 C.ar   85  TYR85       0.1957
     47  OH         7.8640    6.0910   15.3050 O.3    85  TYR85      -0.2866
     48  N          6.5950   15.1290   27.7000 N.3   132  ARG132     -0.1245
     49  CA         5.3960   15.0780   28.5160 C.3   132  ARG132      0.1563
     50  C          5.7840   14.5920   29.9110 C.2   132  ARG132      0.2260
     51  O          6.6030   13.6820   30.0540 O.2   132  ARG132     -0.2867
     52  CB         4.3780   14.1190   27.8930 C.3   132  ARG132      0.0307
     53  CG         3.9320   14.4950   26.4900 C.3   132  ARG132      0.0489
     54  CD         2.9850   13.4470   25.9440 C.3   132  ARG132      0.2205
     55  NE         2.3810   13.8410   24.6740 N.pl3 132  ARG132     -0.0865
     56  CZ         1.4970   13.1020   24.0070 C.cat 132  ARG132      0.5346
     57  NH1        1.1120   11.9240   24.4860 N.pl3 132  ARG132      0.1354
     58  NH2        0.9880   13.5470   22.8670 N.pl3 132  ARG132      0.1354
     59  N          2.4930   10.0320   30.8190 N.3   135  GLU135     -0.1231
     60  CA         2.2140    9.2980   29.5830 C.3   135  GLU135      0.1699
     61  C          1.1660    9.9520   28.6810 C.2   135  GLU135      0.2592
     62  O          1.3860   10.1310   27.4850 O.2   135  GLU135     -0.2718
     63  CB         1.7660    7.8750   29.9170 C.3   135  GLU135      0.0402
     64  CG         1.3040    7.0810   28.7220 C.3   135  GLU135      0.1161
     65  CD         0.4560    5.9010   29.1230 C.2   135  GLU135      0.3649
     66  OE1        0.9590    5.0500   29.8830 O.co2 135  GLU135     -0.2457
     67  OE2       -0.7150    5.8230   28.6820 O.co2 135  GLU135     -0.2457
     68  N          0.0270   10.3040   29.2640 N.am  136  LYS136     -0.1980
     69  CA        -1.0630   10.9200   28.5190 C.3   136  LYS136      0.1596
     70  C         -1.1910   12.4190   28.7620 C.2   136  LYS136      0.2287
     71  O         -2.1480   13.0480   28.3080 O.2   136  LYS136     -0.2864
     72  CB        -2.3750   10.2240   28.8740 C.3   136  LYS136      0.0298
     73  CG        -2.5290    8.8400   28.2550 C.3   136  LYS136      0.0038
     74  CD        -2.8190    8.9500   26.7620 C.3   136  LYS136      0.0206
     75  CE        -4.1120    9.7330   26.5160 C.3   136  LYS136      0.1093
     76  NZ        -4.4520    9.8550   25.0680 N.3   136  LYS136     -0.1314
     77  N          8.3370   -5.6040   21.7520 N.3   162  PHE162     -0.1227
     78  CA         8.8670   -5.2060   20.4630 C.3   162  PHE162      0.1736
     79  C         10.3000   -5.6400   20.3200 C.2   162  PHE162      0.2595
     80  O         11.0110   -5.8360   21.3100 O.2   162  PHE162     -0.2718
     81  CB         8.7620   -3.7040   20.2790 C.3   162  PHE162      0.0547
     82  CG         7.4100   -3.2640   19.8670 C.ar  162  PHE162     -0.0202
     83  CD1        6.9420   -3.5540   18.5930 C.ar  162  PHE162     -0.0042
     84  CD2        6.5710   -2.6230   20.7670 C.ar  162  PHE162     -0.0042
     85  CE1        5.6590   -3.2130   18.2210 C.ar  162  PHE162     -0.0003
     86  CE2        5.2820   -2.2750   20.4050 C.ar  162  PHE162     -0.0003
     87  CZ         4.8240   -2.5710   19.1310 C.ar  162  PHE162     -0.0000
     88  N         10.7080   -5.8010   19.0710 N.am  163  ILE163     -0.1980
     89  CA        12.0520   -6.2320   18.7440 C.3   163  ILE163      0.1595
     90  C         13.1010   -5.1470   19.0710 C.2   163  ILE163      0.2287
     91  O         13.1340   -4.0960   18.4310 O.2   163  ILE163     -0.2864
     92  CB        12.1030   -6.6410   17.2420 C.3   163  ILE163      0.0276
     93  CG1       13.5400   -6.9320   16.8160 C.3   163  ILE163      0.0022
     94  CG2       11.4630   -5.5510   16.3780 C.3   163  ILE163      0.0022
     95  CD1       13.6810   -7.2440   15.3320 C.3   163  ILE163      0.0001
     96  N         10.6580    7.9970   33.9350 N.3   179  ASP179     -0.1225
     97  CA        11.0520    7.5770   32.5970 C.3   179  ASP179      0.1805
     98  C         10.7900    8.7180   31.6260 C.2   179  ASP179      0.2598
     99  O          9.9580    9.5690   31.8910 O.2   179  ASP179     -0.2718
    100  CB        10.2430    6.3390   32.2000 C.3   179  ASP179      0.1424
    101  CG        10.4640    5.9390   30.7660 C.2   179  ASP179      0.3668
    102  OD1       11.6130    6.0590   30.3020 O.co2 179  ASP179     -0.2456
    103  OD2        9.4980    5.4950   30.1070 O.co2 179  ASP179     -0.2456
    104  N         11.4990    8.7480   30.5070 N.am  180  ALA180     -0.1966
    105  CA        11.2890    9.8090   29.5260 C.3   180  ALA180      0.1728
    106  C          9.9680    9.5590   28.8250 C.2   180  ALA180      0.2616
    107  O          9.3270    8.5420   29.0550 O.2   180  ALA180     -0.2715
    108  CB        12.4200    9.8210   28.5070 C.3   180  ALA180      0.0334
    109  N          9.5510   10.4830   27.9730 N.am  181  CYS181     -0.1954
    110  CA         8.3020   10.2910   27.2530 C.3   181  CYS181      0.1843
    111  C          8.3180   11.0910   25.9730 C.2   181  CYS181      0.2625
    112  O          9.3370   11.6950   25.6160 O.2   181  CYS181     -0.2714
    113  CB         7.1120   10.7150   28.1130 C.3   181  CYS181      0.0997
    114  SG         5.4890   10.0200   27.6450 S.3   181  CYS181     -0.0797
    115  N          7.1870   11.0730   25.2750 N.am  182  GLN182     -0.1977
    116  CA         7.0360   11.8050   24.0270 C.3   182  GLN182      0.1601
    117  C          7.6200   13.2060   24.1920 C.2   182  GLN182      0.2287
    118  O          7.5610   13.7770   25.2780 O.2   182  GLN182     -0.2864
    119  CB         5.5520   11.9030   23.6870 C.3   182  GLN182      0.0394
    120  CG         5.2500   12.6430   22.3990 C.3   182  GLN182      0.0908
    121  CD         5.5470   11.8160   21.1640 C.2   182  GLN182      0.2608
    122  OE1        4.8650   10.8230   20.8860 O.2   182  GLN182     -0.2717
    123  NE2        6.5780   12.2170   20.4160 N.am  182  GLN182     -0.0878
    124  N         12.0220   12.6910   22.6340 N.3   185  SER185     -0.1217
    125  CA        12.5140   11.9400   21.4930 C.3   185  SER185      0.1889
    126  C         13.6510   12.7070   20.8170 C.2   185  SER185      0.2288
    127  O         13.6040   13.9240   20.7410 O.2   185  SER185     -0.2866
    128  CB        11.3600   11.7270   20.5120 C.3   185  SER185      0.2089
    129  OG        10.2430   11.1420   21.1660 O.3   185  SER185     -0.2183
    130  N         17.1200    9.4040   22.9010 N.3   203  VAL203     -0.1231
    131  CA        15.7520    9.0530   23.2780 C.3   203  VAL203      0.1692
    132  C         15.0400    8.5700   22.0160 C.2   203  VAL203      0.2593
    133  O         14.9090    9.3020   21.0330 O.2   203  VAL203     -0.2718
    134  CB        14.9990   10.2740   23.8780 C.3   203  VAL203      0.0266
    135  CG1       13.6350    9.8500   24.3610 C.3   203  VAL203      0.0020
    136  CG2       15.8000   10.8710   25.0270 C.3   203  VAL203      0.0020
    137  N         14.5870    7.3270   22.0440 N.am  204  SER204     -0.1938
    138  CA        13.9270    6.7450   20.8860 C.3   204  SER204      0.2055
    139  C         12.4350    6.4710   21.0710 C.2   204  SER204      0.2643
    140  O         11.5850    7.1140   20.4610 O.2   204  SER204     -0.2714
    141  CB        14.6570    5.4540   20.5070 C.3   204  SER204      0.2130
    142  OG        14.1720    4.8970   19.3000 O.3   204  SER204     -0.2179
    143  N         12.1120    5.5180   21.9260 N.am  205  TRP205     -0.1959
    144  CA        10.7190    5.1740   22.1260 C.3   205  TRP205      0.1771
    145  C         10.5280    4.2730   23.3460 C.2   205  TRP205      0.2620
    146  O         11.4840    3.8620   24.0000 O.2   205  TRP205     -0.2715
    147  CB        10.1940    4.4540   20.8750 C.3   205  TRP205      0.0590
    148  CG        10.8940    3.1390   20.6410 C.ar  205  TRP205      0.0006
    149  CD1       12.1330    2.9480   20.0800 C.ar  205  TRP205      0.0946
    150  CD2       10.4660    1.8530   21.1020 C.ar  205  TRP205      0.0152
    151  NE1       12.5030    1.6270   20.1790 N.ar  205  TRP205     -0.2442
    152  CE2       11.4990    0.9330   20.8010 C.ar  205  TRP205      0.0810
    153  CE3        9.3120    1.3900   21.7510 C.ar  205  TRP205      0.0012
    154  CZ2       11.4080   -0.4210   21.1260 C.ar  205  TRP205      0.0191
    155  CZ3        9.2250    0.0430   22.0770 C.ar  205  TRP205      0.0001
    156  CH2       10.2680   -0.8460   21.7630 C.ar  205  TRP205      0.0015
    157  N          9.2710    3.9670   23.6300 N.am  206  GLY206     -0.1940
    158  CA         8.9450    3.1170   24.7520 C.3   206  GLY206      0.2014
    159  C          7.4940    2.7070   24.6580 C.2   206  GLY206      0.2639
    160  O          6.6700    3.4010   24.0630 O.2   206  GLY206     -0.2714
    161  N          7.1790    1.5550   25.2200 N.am  207  GLU207     -0.1963
    162  CA         5.8030    1.0860   25.2080 C.3   207  GLU207      0.1733
    163  C          5.0370    1.9330   26.2230 C.2   207  GLU207      0.2617
    164  O          4.5460    1.4330   27.2350 O.2   207  GLU207     -0.2715
    165  CB         5.7610   -0.3980   25.5790 C.3   207  GLU207      0.0429
    166  CG         6.1940   -1.3080   24.4450 C.3   207  GLU207      0.1163
    167  CD         6.4300   -2.7270   24.9000 C.2   207  GLU207      0.3649
    168  OE1        5.5170   -3.3110   25.5240 O.co2 207  GLU207     -0.2457
    169  OE2        7.5320   -3.2560   24.6290 O.co2 207  GLU207     -0.2457
    170  N          4.9470    3.2270   25.9410 N.am  208  GLY208     -0.1940
    171  CA         4.2750    4.1260   26.8540 C.3   208  GLY208      0.2014
    172  C          5.3190    4.8590   27.6700 C.2   208  GLY208      0.2639
    173  O          6.4810    4.9460   27.2620 O.2   208  GLY208     -0.2714
    174  N          4.9190    5.3630   28.8340 N.am  209  CYS209     -0.1967
    175  CA         5.8210    6.1060   29.6950 C.3   209  CYS209      0.1712
    176  C          5.7720    5.7290   31.1710 C.2   209  CYS209      0.2296
    177  O          4.7270    5.7760   31.8020 O.2   209  CYS209     -0.2864
    178  CB         5.5360    7.5830   29.5060 C.3   209  CYS209      0.0983
    179  SG         5.7790    8.0110   27.7630 S.3   209  CYS209     -0.0798
    180  N          5.6120    3.0990   32.4920 N.3   211  ARG211     -0.1245
    181  CA         4.8810    1.8480   32.6770 C.3   211  ARG211      0.1563
    182  C          5.6540    0.7360   33.3620 C.2   211  ARG211      0.2260
    183  O          6.8330    0.5170   33.0930 O.2   211  ARG211     -0.2867
    184  CB         4.3430    1.3640   31.3290 C.3   211  ARG211      0.0307
    185  CG         3.3580    2.3400   30.7270 C.3   211  ARG211      0.0489
    186  CD         2.6190    1.7960   29.5250 C.3   211  ARG211      0.2205
    187  NE         1.5760    2.7330   29.1100 N.pl3 211  ARG211     -0.0865
    188  CZ         0.7510    2.5470   28.0830 C.cat 211  ARG211      0.5346
    189  NH1        0.8360    1.4510   27.3400 N.pl3 211  ARG211      0.1354
    190  NH2       -0.1770    3.4560   27.8070 N.pl3 211  ARG211      0.1354
    191  N         12.8030    2.4400   29.0160 N.3   216  GLY216     -0.1210
    192  CA        12.9790    3.4550   27.9990 C.3   216  GLY216      0.1956
    193  C         13.9500    2.9300   26.9700 C.2   216  GLY216      0.2612
    194  O         15.0320    2.4650   27.3190 O.2   216  GLY216     -0.2717
    195  N         13.5570    3.0010   25.7040 N.am  217  ILE217     -0.1965
    196  CA        14.3900    2.5130   24.6150 C.3   217  ILE217      0.1727
    197  C         15.1450    3.6450   23.9620 C.2   217  ILE217      0.2616
    198  O         14.5440    4.5550   23.4170 O.2   217  ILE217     -0.2715
    199  CB        13.5480    1.8360   23.5510 C.3   217  ILE217      0.0290
    200  CG1       12.6120    0.8170   24.2080 C.3   217  ILE217      0.0022
    201  CG2       14.4510    1.2460   22.5010 C.3   217  ILE217      0.0023
    202  CD1       13.2840   -0.1210   25.1850 C.3   217  ILE217      0.0001
    203  N         16.4680    3.5690   24.0060 N.am  218  TYR218     -0.1974
    204  CA        17.3170    4.6030   23.4410 C.3   218  TYR218      0.1639
    205  C         18.1750    4.0770   22.3120 C.2   218  TYR218      0.2290
    206  O         18.4160    2.8770   22.2220 O.2   218  TYR218     -0.2864
    207  CB        18.2430    5.1630   24.5220 C.3   218  TYR218      0.0560
    208  CG        17.5250    5.7030   25.7290 C.ar  218  TYR218     -0.0198
    209  CD1       16.9070    4.8490   26.6360 C.ar  218  TYR218     -0.0009
    210  CD2       17.4300    7.0740   25.9430 C.ar  218  TYR218     -0.0009
    211  CE1       16.2100    5.3450   27.7220 C.ar  218  TYR218      0.0417
    212  CE2       16.7330    7.5800   27.0250 C.ar  218  TYR218      0.0417
    213  CZ        16.1240    6.7110   27.9110 C.ar  218  TYR218      0.1957
    214  OH        15.4210    7.2120   28.9830 O.3   218  TYR218     -0.2866
@<TRIPOS>BOND
     1    28    26   ar
     2    25    26    1
     3    25    24    1
     4    26    27   ar
     5    24    21    1
     6    15    16    1
     7    15    12    1
     8    11    12    1
     9    20    21    1
    10    20    13   am
    11    16    17    1
    12    12    13    1
    13    21    22    1
    14    13    14    2
    15    17    18    1
    16    18    19    1
    17    22    29   am
    18    22    23    2
    19    34    33    1
    20    29    30    1
    21    35    33    1
    22    33    30    1
    23     4     3    2
    24    30    31    1
    25     1     2    1
    26     2     3    1
    27     2     5    1
    28    36    37    1
    29    36    31   am
    30    37    38    1
    31    37    40    1
    32    31    32    2
    33    38    39    2
    34    44    42   ar
    35    44    46   ar
    36     5     6    1
    37    42    41   ar
    38    47    46    1
    39    95    93    1
    40    46    45   ar
    41    41    40    1
    42    41    43   ar
    43     6     7   ar
    44     6     8   ar
    45    45    43   ar
    46    94    92    1
    47     7     9   ar
    48    93    92    1
    49     8    10   ar
    50    92    89    1
    51     9    10   ar
    52    85    83   ar
    53    85    87   ar
    54    91    90    2
    55    83    82   ar
    56    89    90    1
    57    89    88    1
    58    88    79   am
    59    87    86   ar
    60   142   141    1
    61    82    81    1
    62    82    84   ar
    63   149   151   ar
    64   149   148   ar
    65   151   152   ar
    66    81    78    1
    67    79    78    1
    68    79    80    2
    69    86    84   ar
    70   123   121   am
    71   140   139    2
    72    78    77    1
    73   141   138    1
    74   128   129    1
    75   128   125    1
    76   148   147    1
    77   148   150   ar
    78   127   126    2
    79   152   150   ar
    80   152   154   ar
    81   126   125    1
    82   147   144    1
    83   138   139    1
    84   138   137    1
    85   122   121    2
    86   133   132    2
    87   139   143   am
    88   150   153   ar
    89   154   156   ar
    90   121   120    1
    91   125   124    1
    92   153   155   ar
    93   156   155   ar
    94   143   144    1
    95   132   137   am
    96   132   131    1
    97   144   145    1
    98   206   205    2
    99   205   204    1
   100   120   119    1
   101   201   199    1
   102    58    56    1
   103   130   131    1
   104   131   134    1
   105   145   157   am
   106   145   146    2
   107   198   197    2
   108   204   203    1
   109   204   207    1
   110   199   200    1
   111   199   196    1
   112   157   158    1
   113   119   116    1
   114   134   135    1
   115   134   136    1
   116   197   203   am
   117   197   196    1
   118    56    57    1
   119    56    55    2
   120   116   117    1
   121   116   115    1
   122   160   159    2
   123   117   118    2
   124   200   202    1
   125   166   167    1
   126   166   165    1
   127   207   208    1
   128   196   195    1
   129   169   167   ar
   130   159   158    1
   131   159   161   am
   132    55    54    1
   133   167   168   ar
   134    76    75    1
   135   162   161    1
   136   162   165    1
   137   162   163    1
   138   115   111   am
   139   112   111    2
   140   195   193   am
   141   208   210   ar
   142   208   209   ar
   143   170   163   am
   144   170   171    1
   145   210   212   ar
   146    54    53    1
   147   111   110    1
   148   163   164    2
   149    53    52    1
   150    75    74    1
   151   209   211   ar
   152    74    73    1
   153   171   172    1
   154   193   194    2
   155   193   192    1
   156   212   213   ar
   157   110   109    1
   158   110   113    1
   159   173   172    2
   160   189   188    1
   161    62    61    2
   162   114   179    1
   163   114   113    1
   164   172   174   am
   165    48    49    1
   166   211   213   ar
   167   179   178    1
   168   190   188    1
   169    52    49    1
   170   213   214    1
   171   109   106   am
   172   192   191    1
   173   188   187    2
   174    73    72    1
   175    71    70    2
   176   108   105    1
   177    49    50    1
   178    69    70    1
   179    69    72    1
   180    69    68    1
   181    61    68   am
   182    61    60    1
   183    67    65   ar
   184    64    65    1
   185    64    63    1
   186   106   107    2
   187   106   105    1
   188   174   175    1
   189   187   186    1
   190    65    66   ar
   191   178   175    1
   192   186   185    1
   193   105   104    1
   194    60    63    1
   195    60    59    1
   196   175   176    1
   197    50    51    2
   198   103   101   ar
   199   102   101   ar
   200   104    98   am
   201   185   184    1
   202   101   100    1
   203   176   177    2
   204   184   181    1
   205    98    99    2
   206    98    97    1
   207   100    97    1
   208   180   181    1
   209    97    96    1
   210   181   182    1
   211   183   182    2
