@<TRIPOS>MOLECULE
tmp/2bq7B00.pdb
 207 206 0 0 0
SMALL
GASTEIGER

@<TRIPOS>ATOM
      1  N         13.5610   10.9620   14.2060 N.3    42  HIS42      -0.1241
      2  CA        12.1050   10.9410   14.2470 C.3    42  HIS42       0.1621
      3  C         11.5010   12.2840   14.6530 C.2    42  HIS42       0.2264
      4  O         10.3040   12.5070   14.4850 O.2    42  HIS42      -0.2867
      5  CB        11.6050    9.7960   15.1500 C.3    42  HIS42       0.0745
      6  CG        11.5200   10.1350   16.6070 C.ar   42  HIS42       0.0817
      7  ND1       10.5210   10.9270   17.1320 N.ar   42  HIS42      -0.2268
      8  CD2       12.2620    9.7210   17.6610 C.ar   42  HIS42       0.1154
      9  CE1       10.6470   10.9800   18.4470 C.ar   42  HIS42       0.1986
     10  NE2       11.6960   10.2550   18.7930 N.ar   42  HIS42      -0.2212
     11  N         10.8400    4.6100   10.3910 N.3    82  LYS82      -0.1231
     12  CA         9.7250    4.8400   11.3050 C.3    82  LYS82       0.1693
     13  C          9.1030    3.5470   11.8160 C.2    82  LYS82       0.2592
     14  O          8.3800    3.5440   12.8040 O.2    82  LYS82      -0.2718
     15  CB         8.6500    5.6770   10.6000 C.3    82  LYS82       0.0285
     16  CG         7.4390    6.0850   11.4840 C.3    82  LYS82       0.0035
     17  CD         7.7930    7.2260   12.4800 C.3    82  LYS82       0.0206
     18  CE         6.5410    7.6780   13.2760 C.3    82  LYS82       0.1093
     19  NZ         6.8160    8.8560   14.1460 N.3    82  LYS82      -0.1314
     20  N          9.3930    2.4460   11.1370 N.am   83  GLU83      -0.1966
     21  CA         8.8310    1.1600   11.5150 C.3    83  GLU83       0.1733
     22  C          9.3940    0.6060   12.8180 C.2    83  GLU83       0.2617
     23  O          8.6920   -0.0730   13.5640 O.2    83  GLU83      -0.2715
     24  CB         9.0510    0.1490   10.3880 C.3    83  GLU83       0.0429
     25  CG         8.3360    0.5140    9.0830 C.3    83  GLU83       0.1163
     26  CD         6.8280    0.6190    9.2580 C.2    83  GLU83       0.3649
     27  OE1        6.2100   -0.3690    9.7140 O.co2  83  GLU83      -0.2457
     28  OE2        6.2590    1.6880    8.9370 O.co2  83  GLU83      -0.2457
     29  N         10.6590    0.9090   13.0950 N.am   84  THR84      -0.1937
     30  CA        11.3120    0.4070   14.2960 C.3    84  THR84       0.2028
     31  C         12.0650    1.4830   15.0760 C.2    84  THR84       0.2642
     32  O         12.4920    1.2500   16.2030 O.2    84  THR84      -0.2714
     33  CB        12.3150   -0.6980   13.9310 C.3    84  THR84       0.1808
     34  OG1       13.3270   -0.1520   13.0730 O.3    84  THR84      -0.2208
     35  CG2       11.6140   -1.8400   13.2050 C.3    84  THR84       0.0379
     36  N         12.2280    2.6540   14.4680 N.am   85  TYR85      -0.1973
     37  CA        12.9550    3.7560   15.0920 C.3    85  TYR85       0.1639
     38  C         14.4390    3.4320   15.2230 C.2    85  TYR85       0.2290
     39  O         15.1440    4.0240   16.0340 O.2    85  TYR85      -0.2864
     40  CB        12.3690    4.0920   16.4700 C.3    85  TYR85       0.0560
     41  CG        11.2940    5.1600   16.4480 C.ar   85  TYR85      -0.0198
     42  CD1       10.3900    5.2520   15.3870 C.ar   85  TYR85      -0.0009
     43  CD2       11.1640    6.0650   17.5020 C.ar   85  TYR85      -0.0009
     44  CE1        9.3850    6.2190   15.3770 C.ar   85  TYR85       0.0417
     45  CE2       10.1610    7.0320   17.5010 C.ar   85  TYR85       0.0417
     46  CZ         9.2780    7.1030   16.4370 C.ar   85  TYR85       0.1957
     47  OH         8.2960    8.0670   16.4270 O.3    85  TYR85      -0.2866
     48  N          6.8220   15.8730   28.8810 N.3   132  ARG132     -0.1245
     49  CA         5.7340   15.6400   29.8300 C.3   132  ARG132      0.1563
     50  C          6.1900   15.1360   31.1990 C.2   132  ARG132      0.2260
     51  O          7.1280   14.3530   31.3010 O.2   132  ARG132     -0.2867
     52  CB         4.7430   14.6300   29.2530 C.3   132  ARG132      0.0307
     53  CG         4.1850   14.9980   27.8880 C.3   132  ARG132      0.0489
     54  CD         3.0930   14.0000   27.4610 C.3   132  ARG132      0.2205
     55  NE         2.4710   14.3750   26.1920 N.pl3 132  ARG132     -0.0865
     56  CZ         1.4210   13.7530   25.6650 C.cat 132  ARG132      0.5346
     57  NH1        0.8730   12.7230   26.2980 N.pl3 132  ARG132      0.1354
     58  NH2        0.9160   14.1660   24.5100 N.pl3 132  ARG132      0.1354
     59  N          2.7520   10.5490   31.6820 N.3   135  GLU135     -0.1231
     60  CA         2.4530    9.9830   30.3740 C.3   135  GLU135      0.1699
     61  C          1.3920   10.7370   29.5810 C.2   135  GLU135      0.2592
     62  O          1.6290   11.1380   28.4450 O.2   135  GLU135     -0.2718
     63  CB         2.0390    8.5210   30.5200 C.3   135  GLU135      0.0402
     64  CG         2.0060    7.7680   29.2060 C.3   135  GLU135      0.1161
     65  CD         1.6300    6.3120   29.3840 C.2   135  GLU135      0.3649
     66  OE1        2.3140    5.6020   30.1560 O.co2 135  GLU135     -0.2457
     67  OE2        0.6470    5.8800   28.7490 O.co2 135  GLU135     -0.2457
     68  N          0.2230   10.9360   30.1800 N.am  136  LYS136     -0.1980
     69  CA        -0.8650   11.6340   29.4990 C.3   136  LYS136      0.1596
     70  C         -0.9460   13.1160   29.8450 C.2   136  LYS136      0.2287
     71  O         -1.9390   13.7780   29.5290 O.2   136  LYS136     -0.2864
     72  CB        -2.2000   10.9590   29.8270 C.3   136  LYS136      0.0298
     73  CG        -2.4100    9.6080   29.1310 C.3   136  LYS136      0.0038
     74  CD        -2.9010    9.7920   27.6670 C.3   136  LYS136      0.0206
     75  CE        -4.3160   10.4310   27.6350 C.3   136  LYS136      0.1093
     76  NZ        -4.8870   10.5410   26.2610 N.3   136  LYS136     -0.1314
     77  N          8.6140   -4.3820   21.5920 N.3   162  PHE162     -0.1241
     78  CA         9.1620   -4.0200   20.2870 C.3   162  PHE162      0.1605
     79  C         10.6270   -4.4170   20.2300 C.2   162  PHE162      0.2264
     80  O         11.2760   -4.5580   21.2490 O.2   162  PHE162     -0.2867
     81  CB         9.0320   -2.5150   20.0470 C.3   162  PHE162      0.0534
     82  CG         7.6180   -2.0540   19.8520 C.ar  162  PHE162     -0.0203
     83  CD1        6.9220   -2.3730   18.6900 C.ar  162  PHE162     -0.0042
     84  CD2        6.9790   -1.2990   20.8310 C.ar  162  PHE162     -0.0042
     85  CE1        5.6100   -1.9440   18.5050 C.ar  162  PHE162     -0.0003
     86  CE2        5.6630   -0.8650   20.6550 C.ar  162  PHE162     -0.0003
     87  CZ         4.9770   -1.1870   19.4910 C.ar  162  PHE162     -0.0000
     88  N         11.1270    8.5830   34.4840 N.3   179  ASP179     -0.1225
     89  CA        11.4760    8.1930   33.1250 C.3   179  ASP179      0.1805
     90  C         11.3580    9.4130   32.2190 C.2   179  ASP179      0.2598
     91  O         10.7940   10.4240   32.6110 O.2   179  ASP179     -0.2718
     92  CB        10.4930    7.0950   32.6930 C.3   179  ASP179      0.1424
     93  CG        10.7770    6.5370   31.3190 C.2   179  ASP179      0.3668
     94  OD1       11.8970    6.7280   30.8020 O.co2 179  ASP179     -0.2456
     95  OD2        9.8640    5.8770   30.7690 O.co2 179  ASP179     -0.2456
     96  N         11.9150    9.3280   31.0180 N.am  180  ALA180     -0.1966
     97  CA        11.8000   10.4310   30.0770 C.3   180  ALA180      0.1728
     98  C         10.4050   10.2570   29.4870 C.2   180  ALA180      0.2616
     99  O          9.7590    9.2550   29.7470 O.2   180  ALA180     -0.2715
    100  CB        12.8590   10.3200   28.9910 C.3   180  ALA180      0.0334
    101  N          9.9370   11.2230   28.7040 N.am  181  CYS181     -0.1954
    102  CA         8.6080   11.1060   28.1230 C.3   181  CYS181      0.1843
    103  C          8.4420   11.9650   26.8710 C.2   181  CYS181      0.2625
    104  O          9.3600   12.6660   26.4720 O.2   181  CYS181     -0.2714
    105  CB         7.5580   11.4830   29.1750 C.3   181  CYS181      0.0997
    106  SG         5.8640   10.9100   28.8150 S.3   181  CYS181     -0.0797
    107  N          7.2600   11.8970   26.2580 N.am  182  GLN182     -0.1977
    108  CA         6.9680   12.6520   25.0370 C.3   182  GLN182      0.1601
    109  C          7.4160   14.1050   25.1440 C.2   182  GLN182      0.2287
    110  O          7.0700   14.8030   26.0910 O.2   182  GLN182     -0.2864
    111  CB         5.4710   12.6040   24.7320 C.3   182  GLN182      0.0394
    112  CG         5.1160   13.1260   23.3580 C.3   182  GLN182      0.0908
    113  CD         5.8510   12.3740   22.2650 C.2   182  GLN182      0.2608
    114  OE1        5.6670   11.1650   22.0940 O.2   182  GLN182     -0.2717
    115  NE2        6.6980   13.0820   21.5230 N.am  182  GLN182     -0.0878
    116  N         12.1940   13.5470   23.4060 N.3   185  SER185     -0.1217
    117  CA        12.8730   12.9100   22.2730 C.3   185  SER185      0.1889
    118  C         13.9280   13.8060   21.6180 C.2   185  SER185      0.2288
    119  O         13.7080   15.0020   21.4000 O.2   185  SER185     -0.2866
    120  CB        11.8580   12.4750   21.2090 C.3   185  SER185      0.2089
    121  OG        10.9170   11.5480   21.7290 O.3   185  SER185     -0.2183
    122  N         17.4730   10.6440   23.5790 N.3   203  VAL203     -0.1231
    123  CA        16.1430   10.1840   23.9940 C.3   203  VAL203      0.1692
    124  C         15.4190    9.7430   22.7160 C.2   203  VAL203      0.2593
    125  O         15.2850   10.5160   21.7760 O.2   203  VAL203     -0.2718
    126  CB        15.3280   11.3090   24.6840 C.3   203  VAL203      0.0266
    127  CG1       13.9600   10.7720   25.1190 C.3   203  VAL203      0.0020
    128  CG2       16.0860   11.8460   25.8970 C.3   203  VAL203      0.0020
    129  N         14.9560    8.4980   22.6880 N.am  204  SER204     -0.1938
    130  CA        14.3070    7.9770   21.4950 C.3   204  SER204      0.2055
    131  C         12.8200    7.6400   21.6510 C.2   204  SER204      0.2643
    132  O         11.9590    8.2960   21.0670 O.2   204  SER204     -0.2714
    133  CB        15.0810    6.7430   21.0090 C.3   204  SER204      0.2130
    134  OG        14.6770    6.3610   19.7080 O.3   204  SER204     -0.2179
    135  N         12.5170    6.6070   22.4220 N.am  205  TRP205     -0.1959
    136  CA        11.1310    6.2250   22.6170 C.3   205  TRP205      0.1771
    137  C         10.9330    5.3860   23.8620 C.2   205  TRP205      0.2620
    138  O         11.8430    5.2100   24.6550 O.2   205  TRP205     -0.2715
    139  CB        10.6260    5.4420   21.4080 C.3   205  TRP205      0.0590
    140  CG        11.4240    4.2090   21.1210 C.ar  205  TRP205      0.0006
    141  CD1       12.6030    4.1390   20.4470 C.ar  205  TRP205      0.0946
    142  CD2       11.0910    2.8660   21.4920 C.ar  205  TRP205      0.0152
    143  NE1       13.0280    2.8350   20.3670 N.ar  205  TRP205     -0.2442
    144  CE2       12.1170    2.0310   21.0020 C.ar  205  TRP205      0.0810
    145  CE3       10.0220    2.2850   22.1900 C.ar  205  TRP205      0.0012
    146  CZ2       12.1090    0.6450   21.1850 C.ar  205  TRP205      0.0191
    147  CZ3       10.0140    0.9030   22.3710 C.ar  205  TRP205      0.0001
    148  CH2       11.0520    0.1010   21.8690 C.ar  205  TRP205      0.0015
    149  N          9.7140    4.8760   24.0070 N.am  206  GLY206     -0.1940
    150  CA         9.3570    4.0470   25.1370 C.3   206  GLY206      0.2014
    151  C          7.8920    3.6810   25.0200 C.2   206  GLY206      0.2639
    152  O          7.1480    4.3320   24.2910 O.2   206  GLY206     -0.2714
    153  N          7.4840    2.6250   25.7150 N.am  207  GLU207     -0.1963
    154  CA         6.0900    2.1880   25.7090 C.3   207  GLU207      0.1733
    155  C          5.4170    2.9290   26.8570 C.2   207  GLU207      0.2617
    156  O          5.4710    2.4970   28.0100 O.2   207  GLU207     -0.2715
    157  CB         6.0090    0.6770   25.9320 C.3   207  GLU207      0.0429
    158  CG         6.6870   -0.1480   24.8380 C.3   207  GLU207      0.1163
    159  CD         6.5550   -1.6440   25.0820 C.2   207  GLU207      0.3649
    160  OE1        5.4040   -2.1150   25.2330 O.co2 207  GLU207     -0.2457
    161  OE2        7.5920   -2.3470   25.1250 O.co2 207  GLU207     -0.2457
    162  N          4.7880    4.0510   26.5330 N.am  208  GLY208     -0.1940
    163  CA         4.1640    4.8570   27.5600 C.3   208  GLY208      0.2014
    164  C          5.2870    5.6070   28.2510 C.2   208  GLY208      0.2639
    165  O          6.3290    5.8600   27.6400 O.2   208  GLY208     -0.2714
    166  N          5.0890    5.9590   29.5160 N.am  209  CYS209     -0.1967
    167  CA         6.1060    6.6710   30.2830 C.3   209  CYS209      0.1712
    168  C          6.0950    6.2130   31.7310 C.2   209  CYS209      0.2296
    169  O          5.0610    6.2570   32.3970 O.2   209  CYS209     -0.2864
    170  CB         5.8720    8.1880   30.2260 C.3   209  CYS209      0.0983
    171  SG         6.0760    8.9050   28.5670 S.3   209  CYS209     -0.0798
    172  N         11.1660    0.3410   30.2040 N.3   215  TYR215     -0.1227
    173  CA        12.2870    1.2550   30.3570 C.3   215  TYR215      0.1736
    174  C         12.2730    2.3120   29.2660 C.2   215  TYR215      0.2596
    175  O         11.4750    2.2480   28.3470 O.2   215  TYR215     -0.2718
    176  CB        13.6040    0.4760   30.2880 C.3   215  TYR215      0.0548
    177  CG        13.7520   -0.5880   31.3540 C.ar  215  TYR215     -0.0200
    178  CD1       13.9540   -0.2410   32.6920 C.ar  215  TYR215     -0.0009
    179  CD2       13.6910   -1.9450   31.0280 C.ar  215  TYR215     -0.0009
    180  CE1       14.0980   -1.2200   33.6810 C.ar  215  TYR215      0.0417
    181  CE2       13.8320   -2.9360   32.0100 C.ar  215  TYR215      0.0417
    182  CZ        14.0370   -2.5650   33.3320 C.ar  215  TYR215      0.1957
    183  OH        14.1900   -3.5310   34.3060 O.3   215  TYR215     -0.2866
    184  N         13.1610    3.2940   29.3930 N.am  216  GLY216     -0.1942
    185  CA        13.2690    4.3290   28.3860 C.3   216  GLY216      0.2014
    186  C         14.2470    3.8010   27.3540 C.2   216  GLY216      0.2639
    187  O         15.2600    3.2520   27.7110 O.2   216  GLY216     -0.2714
    188  N         13.9300    3.9580   26.0740 N.am  217  ILE217     -0.1963
    189  CA        14.7970    3.4690   25.0110 C.3   217  ILE217      0.1727
    190  C         15.5750    4.6350   24.4170 C.2   217  ILE217      0.2616
    191  O         14.9870    5.6230   23.9870 O.2   217  ILE217     -0.2715
    192  CB        13.9730    2.7890   23.8980 C.3   217  ILE217      0.0290
    193  CG1       12.9490    1.8240   24.5210 C.3   217  ILE217      0.0022
    194  CG2       14.9030    2.0530   22.9340 C.3   217  ILE217      0.0023
    195  CD1       13.5470    0.8020   25.4570 C.3   217  ILE217      0.0001
    196  N         16.8990    4.5050   24.3930 N.am  218  TYR218     -0.1974
    197  CA        17.7700    5.5570   23.8820 C.3   218  TYR218      0.1639
    198  C         18.6490    5.1230   22.7200 C.2   218  TYR218      0.2290
    199  O         19.0610    3.9710   22.6350 O.2   218  TYR218     -0.2864
    200  CB        18.6880    6.0680   24.9950 C.3   218  TYR218      0.0560
    201  CG        17.9600    6.5980   26.2010 C.ar  218  TYR218     -0.0198
    202  CD1       17.2930    5.7360   27.0740 C.ar  218  TYR218     -0.0009
    203  CD2       17.9280    7.9630   26.4660 C.ar  218  TYR218     -0.0009
    204  CE1       16.6080    6.2250   28.1870 C.ar  218  TYR218      0.0417
    205  CE2       17.2520    8.4640   27.5710 C.ar  218  TYR218      0.0417
    206  CZ        16.5960    7.5930   28.4260 C.ar  218  TYR218      0.1957
    207  OH        15.9440    8.0960   29.5210 O.3   218  TYR218     -0.2866
@<TRIPOS>BOND
     1    28    26   ar
     2    25    26    1
     3    25    24    1
     4    26    27   ar
     5    24    21    1
     6    11    12    1
     7    15    12    1
     8    15    16    1
     9    20    21    1
    10    20    13   am
    11    12    13    1
    12    16    17    1
    13    21    22    1
    14    13    14    2
    15    17    18    1
    16    22    29   am
    17    22    23    2
    18    34    33    1
    19    29    30    1
    20    35    33    1
    21    18    19    1
    22    33    30    1
    23     1     2    1
    24     2     3    1
    25     2     5    1
    26    30    31    1
    27    36    31   am
    28    36    37    1
    29     4     3    2
    30    31    32    2
    31    37    38    1
    32    37    40    1
    33     5     6    1
    34    38    39    2
    35    44    42   ar
    36    44    46   ar
    37    42    41   ar
    38    47    46    1
    39    46    45   ar
    40    41    40    1
    41    41    43   ar
    42     6     7   ar
    43     6     8   ar
    44     7     9   ar
    45    45    43   ar
    46     8    10   ar
    47     9    10   ar
    48    85    83   ar
    49    85    87   ar
    50    83    82   ar
    51    87    86   ar
    52   134   133    1
    53    82    81    1
    54    82    84   ar
    55    81    78    1
    56    79    78    1
    57    79    80    2
    58    78    77    1
    59   143   141   ar
    60   143   144   ar
    61   141   140   ar
    62    86    84   ar
    63   144   146   ar
    64   144   142   ar
    65   133   130    1
    66   132   131    2
    67   140   139    1
    68   140   142   ar
    69   146   148   ar
    70   120   121    1
    71   120   117    1
    72   119   118    2
    73   139   136    1
    74   142   145   ar
    75   130   131    1
    76   130   129    1
    77   115   113   am
    78   118   117    1
    79   131   135   am
    80   125   124    2
    81   148   147   ar
    82   114   113    2
    83   145   147   ar
    84   113   112    1
    85   117   116    1
    86   135   136    1
    87   136   137    1
    88   199   198    2
    89   129   124   am
    90   124   123    1
    91   198   197    1
    92   194   192    1
    93   112   111    1
    94   122   123    1
    95   137   149   am
    96   137   138    2
    97   197   196    1
    98   197   200    1
    99   192   193    1
   100   192   189    1
   101   191   190    2
   102   123   126    1
   103   149   150    1
   104   152   151    2
   105   196   190   am
   106   190   189    1
   107    58    56    1
   108   193   195    1
   109   126   127    1
   110   126   128    1
   111   111   108    1
   112   158   159    1
   113   158   157    1
   114   200   201    1
   115   189   188    1
   116   151   150    1
   117   151   153   am
   118   108   109    1
   119   108   107    1
   120   159   161   ar
   121   159   160   ar
   122   109   110    2
   123    56    55    2
   124    56    57    1
   125   154   153    1
   126   154   157    1
   127   154   155    1
   128   188   186   am
   129    55    54    1
   130   201   203   ar
   131   201   202   ar
   132   107   103   am
   133    76    75    1
   134   203   205   ar
   135   104   103    2
   136   162   155   am
   137   162   163    1
   138   155   156    2
   139   103   102    1
   140   202   204   ar
   141   186   187    2
   142   186   185    1
   143    54    53    1
   144   163   164    1
   145   205   206   ar
   146    75    74    1
   147   165   164    2
   148    74    73    1
   149    53    52    1
   150   102   101    1
   151   102   105    1
   152   204   206   ar
   153   164   166   am
   154   175   174    2
   155   185   184    1
   156   206   207    1
   157    62    61    2
   158   171   106    1
   159   171   170    1
   160   101    98   am
   161    67    65   ar
   162   106   105    1
   163    48    49    1
   164   100    97    1
   165    73    72    1
   166    64    65    1
   167    64    63    1
   168    52    49    1
   169   174   184   am
   170   174   173    1
   171    65    66   ar
   172    98    99    2
   173    98    97    1
   174    69    72    1
   175    69    70    1
   176    69    68    1
   177   166   167    1
   178    71    70    2
   179    61    68   am
   180    61    60    1
   181    49    50    1
   182    97    96    1
   183   172   173    1
   184   170   167    1
   185   167   168    1
   186   176   173    1
   187   176   177    1
   188    60    63    1
   189    60    59    1
   190    95    93   ar
   191    94    93   ar
   192    96    90   am
   193   179   177   ar
   194   179   181   ar
   195    50    51    2
   196    93    92    1
   197   177   178   ar
   198   168   169    2
   199   181   182   ar
   200    90    91    2
   201    90    89    1
   202   178   180   ar
   203    92    89    1
   204    89    88    1
   205   182   180   ar
   206   182   183    1
