@<TRIPOS>MOLECULE
tmp/2bqwB00.pdb
 196 195 0 0 0
SMALL
GASTEIGER

@<TRIPOS>ATOM
      1  N         11.1920    4.5640   10.5060 N.3    82  LYS82      -0.1231
      2  CA        10.0740    4.7920   11.4040 C.3    82  LYS82       0.1693
      3  C          9.3790    3.4980   11.7960 C.2    82  LYS82       0.2592
      4  O          8.4750    3.5020   12.6080 O.2    82  LYS82      -0.2718
      5  CB         9.0690    5.7440   10.7360 C.3    82  LYS82       0.0285
      6  CG         7.7610    6.2760   11.3540 C.3    82  LYS82       0.0035
      7  CD         7.9960    7.3800   12.4000 C.3    82  LYS82       0.0206
      8  CE         6.6750    7.9300   12.9460 C.3    82  LYS82       0.1093
      9  NZ         6.8540    9.1520   13.7870 N.3    82  LYS82      -0.1314
     10  N          9.8120    2.3860   11.2190 N.am   83  GLU83      -0.1966
     11  CA         9.1830    1.1070   11.5240 C.3    83  GLU83       0.1733
     12  C          9.6640    0.5140   12.8350 C.2    83  GLU83       0.2617
     13  O          8.8890   -0.0590   13.5830 O.2    83  GLU83      -0.2715
     14  CB         9.4330    0.1110   10.3920 C.3    83  GLU83       0.0429
     15  CG         8.7520    0.5180    9.0910 C.3    83  GLU83       0.1163
     16  CD         7.2460    0.6870    9.2470 C.2    83  GLU83       0.3649
     17  OE1        6.5760   -0.2700    9.7130 O.co2  83  GLU83      -0.2457
     18  OE2        6.7350    1.7780    8.8980 O.co2  83  GLU83      -0.2457
     19  N         10.9530    0.6680   13.1040 N.am   84  THR84      -0.1937
     20  CA        11.5450    0.1350   14.3140 C.3    84  THR84       0.2028
     21  C         12.3050    1.2060   15.0720 C.2    84  THR84       0.2642
     22  O         12.7710    0.9710   16.1690 O.2    84  THR84      -0.2714
     23  CB        12.5030   -0.9900   13.9720 C.3    84  THR84       0.1808
     24  OG1       13.4130   -0.5330   12.9610 O.3    84  THR84      -0.2208
     25  CG2       11.7370   -2.1990   13.4570 C.3    84  THR84       0.0379
     26  N         12.4320    2.3810   14.4620 N.am   85  TYR85      -0.1973
     27  CA        13.1370    3.4970   15.0760 C.3    85  TYR85       0.1639
     28  C         14.6330    3.2320   15.2170 C.2    85  TYR85       0.2290
     29  O         15.2900    3.8140   16.0640 O.2    85  TYR85      -0.2864
     30  CB        12.5280    3.8070   16.4450 C.3    85  TYR85       0.0560
     31  CG        11.5290    4.9490   16.4540 C.ar   85  TYR85      -0.0198
     32  CD1       10.6430    5.1520   15.3910 C.ar   85  TYR85      -0.0009
     33  CD2       11.4470    5.8120   17.5490 C.ar   85  TYR85      -0.0009
     34  CE1        9.7040    6.1870   15.4220 C.ar   85  TYR85       0.0417
     35  CE2       10.5120    6.8440   17.5890 C.ar   85  TYR85       0.0417
     36  CZ         9.6480    7.0250   16.5280 C.ar   85  TYR85       0.1957
     37  OH         8.7400    8.0520   16.5860 O.3    85  TYR85      -0.2866
     38  N          7.1150   15.8650   28.7200 N.3   132  ARG132     -0.1245
     39  CA         5.9870   15.6890   29.6180 C.3   132  ARG132      0.1563
     40  C          6.4440   15.1980   30.9700 C.2   132  ARG132      0.2260
     41  O          7.4340   14.4920   31.0680 O.2   132  ARG132     -0.2867
     42  CB         5.0100   14.6810   29.0340 C.3   132  ARG132      0.0307
     43  CG         4.5410   14.9830   27.6240 C.3   132  ARG132      0.0489
     44  CD         3.4430   14.0190   27.2380 C.3   132  ARG132      0.2205
     45  NE         2.8650   14.3140   25.9340 N.pl3 132  ARG132     -0.0865
     46  CZ         1.7510   13.7480   25.4860 C.cat 132  ARG132      0.5346
     47  NH1        1.1090   12.8690   26.2430 N.pl3 132  ARG132      0.1354
     48  NH2        1.2800   14.0530   24.2900 N.pl3 132  ARG132      0.1354
     49  N          2.8270   10.6510   31.4920 N.3   135  GLU135     -0.1245
     50  CA         2.5210   10.0970   30.1830 C.3   135  GLU135      0.1567
     51  C          1.4130   10.8580   29.4500 C.2   135  GLU135      0.2260
     52  O          1.5900   11.2700   28.3060 O.2   135  GLU135     -0.2867
     53  CB         2.1420    8.6280   30.3260 C.3   135  GLU135      0.0388
     54  CG         2.2430    7.9660   28.9750 C.3   135  GLU135      0.1160
     55  CD         2.0460    6.4670   29.0510 C.2   135  GLU135      0.3649
     56  OE1        2.7980    5.8060   29.8020 O.co2 135  GLU135     -0.2457
     57  OE2        1.1390    5.9560   28.3560 O.co2 135  GLU135     -0.2457
     58  N          8.7980   -4.4210   21.5770 N.3   162  PHE162     -0.1227
     59  CA         9.4220   -4.1010   20.2850 C.3   162  PHE162      0.1736
     60  C         10.8700   -4.5940   20.2530 C.2   162  PHE162      0.2595
     61  O         11.4530   -4.8960   21.2910 O.2   162  PHE162     -0.2718
     62  CB         9.4200   -2.5910   19.9890 C.3   162  PHE162      0.0547
     63  CG         8.0590   -2.0270   19.7270 C.ar  162  PHE162     -0.0202
     64  CD1        7.2530   -2.5590   18.7250 C.ar  162  PHE162     -0.0042
     65  CD2        7.5420   -1.0170   20.5380 C.ar  162  PHE162     -0.0042
     66  CE1        5.9480   -2.1030   18.5410 C.ar  162  PHE162     -0.0003
     67  CE2        6.2330   -0.5530   20.3600 C.ar  162  PHE162     -0.0003
     68  CZ         5.4360   -1.1000   19.3630 C.ar  162  PHE162     -0.0000
     69  N         11.4510   -4.6660   19.0610 N.am  163  ILE163     -0.1980
     70  CA        12.8250   -5.1280   18.9220 C.3   163  ILE163      0.1595
     71  C         13.8340   -4.0640   19.3680 C.2   163  ILE163      0.2287
     72  O         13.6560   -2.8790   19.1020 O.2   163  ILE163     -0.2864
     73  CB        13.1180   -5.5230   17.4610 C.3   163  ILE163      0.0276
     74  CG1       14.5680   -5.9810   17.3180 C.3   163  ILE163      0.0022
     75  CG2       12.8430   -4.3480   16.5480 C.3   163  ILE163      0.0022
     76  CD1       14.9400   -6.3780   15.9090 C.3   163  ILE163      0.0001
     77  N         11.3500    8.4270   34.4950 N.3   179  ASP179     -0.1225
     78  CA        11.7390    8.0600   33.1440 C.3   179  ASP179      0.1805
     79  C         11.5350    9.2620   32.2370 C.2   179  ASP179      0.2598
     80  O         10.8430   10.1920   32.6040 O.2   179  ASP179     -0.2718
     81  CB        10.8790    6.8750   32.6890 C.3   179  ASP179      0.1424
     82  CG        11.0170    6.5750   31.2210 C.2   179  ASP179      0.3668
     83  OD1       12.1370    6.6960   30.6880 O.co2 179  ASP179     -0.2456
     84  OD2        9.9990    6.2010   30.6050 O.co2 179  ASP179     -0.2456
     85  N         12.1600    9.2520   31.0670 N.am  180  ALA180     -0.1966
     86  CA        11.9980   10.3590   30.1340 C.3   180  ALA180      0.1728
     87  C         10.6150   10.2120   29.5290 C.2   180  ALA180      0.2616
     88  O          9.9340    9.2550   29.8120 O.2   180  ALA180     -0.2715
     89  CB        13.0670   10.2950   29.0400 C.3   180  ALA180      0.0334
     90  N         10.1990   11.1660   28.7030 N.am  181  CYS181     -0.1954
     91  CA         8.8830   11.0810   28.0770 C.3   181  CYS181      0.1843
     92  C          8.7790   11.9430   26.8200 C.2   181  CYS181      0.2625
     93  O          9.7620   12.5500   26.3880 O.2   181  CYS181     -0.2714
     94  CB         7.7930   11.4680   29.0840 C.3   181  CYS181      0.0997
     95  SG         6.1420   10.7880   28.7060 S.3   181  CYS181     -0.0797
     96  N          7.5860   11.9790   26.2310 N.am  182  GLN182     -0.1977
     97  CA         7.3450   12.7480   25.0140 C.3   182  GLN182      0.1601
     98  C          7.8660   14.1740   25.1190 C.2   182  GLN182      0.2287
     99  O          7.5790   14.8740   26.0760 O.2   182  GLN182     -0.2864
    100  CB         5.8480   12.7800   24.7010 C.3   182  GLN182      0.0394
    101  CG         5.5920   13.4580   23.3660 C.3   182  GLN182      0.0908
    102  CD         6.4360   12.8580   22.2520 C.2   182  GLN182      0.2608
    103  OE1        6.4690   11.6320   22.0640 O.2   182  GLN182     -0.2717
    104  NE2        7.1270   13.7180   21.5030 N.am  182  GLN182     -0.0878
    105  N         12.4990   13.4240   23.5410 N.3   185  SER185     -0.1217
    106  CA        13.1340   12.7530   22.4090 C.3   185  SER185      0.1889
    107  C         14.1390   13.6570   21.7060 C.2   185  SER185      0.2288
    108  O         13.9090   14.8560   21.5470 O.2   185  SER185     -0.2866
    109  CB        12.0750   12.2780   21.4130 C.3   185  SER185      0.2089
    110  OG        11.2020   11.3300   22.0140 O.3   185  SER185     -0.2183
    111  N         17.7840   10.5300   23.3970 N.3   203  VAL203     -0.1231
    112  CA        16.4750   10.0560   23.8550 C.3   203  VAL203      0.1692
    113  C         15.6890    9.5860   22.6280 C.2   203  VAL203      0.2593
    114  O         15.3110   10.3860   21.7830 O.2   203  VAL203     -0.2718
    115  CB        15.6960   11.1690   24.5890 C.3   203  VAL203      0.0266
    116  CG1       14.3040   10.6950   24.9060 C.3   203  VAL203      0.0020
    117  CG2       16.4110   11.5310   25.8820 C.3   203  VAL203      0.0020
    118  N         15.4420    8.2810   22.5460 N.am  204  SER204     -0.1938
    119  CA        14.7650    7.7220   21.3860 C.3   204  SER204      0.2055
    120  C         13.2700    7.4460   21.5270 C.2   204  SER204      0.2643
    121  O         12.4500    8.1200   20.9010 O.2   204  SER204     -0.2714
    122  CB        15.4930    6.4450   20.9460 C.3   204  SER204      0.2130
    123  OG        15.2660    6.1510   19.5740 O.3   204  SER204     -0.2179
    124  N         12.9100    6.4530   22.3330 N.am  205  TRP205     -0.1959
    125  CA        11.5000    6.1120   22.5040 C.3   205  TRP205      0.1771
    126  C         11.2640    5.2410   23.7250 C.2   205  TRP205      0.2620
    127  O         12.1550    5.0220   24.5290 O.2   205  TRP205     -0.2715
    128  CB        10.9930    5.3610   21.2750 C.3   205  TRP205      0.0590
    129  CG        11.7640    4.1090   21.0250 C.ar  205  TRP205      0.0006
    130  CD1       12.9960    4.0080   20.4490 C.ar  205  TRP205      0.0946
    131  CD2       11.3900    2.7780   21.4050 C.ar  205  TRP205      0.0152
    132  NE1       13.4160    2.7000   20.4460 N.ar  205  TRP205     -0.2442
    133  CE2       12.4480    1.9220   21.0280 C.ar  205  TRP205      0.0810
    134  CE3       10.2630    2.2230   22.0290 C.ar  205  TRP205      0.0012
    135  CZ2       12.4140    0.5450   21.2530 C.ar  205  TRP205      0.0191
    136  CZ3       10.2300    0.8560   22.2520 C.ar  205  TRP205      0.0001
    137  CH2       11.2980    0.0330   21.8640 C.ar  205  TRP205      0.0015
    138  N         10.0410    4.7360   23.8360 N.am  206  GLY206     -0.1940
    139  CA         9.6920    3.8760   24.9480 C.3   206  GLY206      0.2014
    140  C          8.2160    3.5450   24.9820 C.2   206  GLY206      0.2639
    141  O          7.4090    4.3120   24.4900 O.2   206  GLY206     -0.2714
    142  N          7.8640    2.3960   25.5490 N.am  207  GLU207     -0.1963
    143  CA         6.4600    2.0190   25.6530 C.3   207  GLU207      0.1733
    144  C          5.8430    2.8050   26.8110 C.2   207  GLU207      0.2617
    145  O          5.9760    2.4260   27.9720 O.2   207  GLU207     -0.2715
    146  CB         6.3300    0.5230   25.9080 C.3   207  GLU207      0.0429
    147  CG         7.0150   -0.1810   24.7660 C.3   207  GLU207      0.1163
    148  CD         6.7180   -1.6600   24.7600 C.2   207  GLU207      0.3649
    149  OE1        5.5400   -2.0200   24.5520 O.co2 207  GLU207     -0.2457
    150  OE2        7.6570   -2.4580   24.9700 O.co2 207  GLU207     -0.2457
    151  N          5.1720    3.9030   26.4800 N.am  208  GLY208     -0.1940
    152  CA         4.5850    4.7410   27.5040 C.3   208  GLY208      0.2014
    153  C          5.6860    5.5520   28.1680 C.2   208  GLY208      0.2639
    154  O          6.6570    5.9260   27.5180 O.2   208  GLY208     -0.2714
    155  N          5.5350    5.8190   29.4630 N.am  209  CYS209     -0.1967
    156  CA         6.5250    6.5790   30.2210 C.3   209  CYS209      0.1712
    157  C          6.5070    6.1440   31.6840 C.2   209  CYS209      0.2296
    158  O          5.5240    6.3490   32.3830 O.2   209  CYS209     -0.2864
    159  CB         6.2410    8.0830   30.1260 C.3   209  CYS209      0.0983
    160  SG         6.4570    8.7960   28.4630 S.3   209  CYS209     -0.0798
    161  N         11.3070    0.1390   30.1060 N.3   215  TYR215     -0.1227
    162  CA        12.4340    1.0380   30.2870 C.3   215  TYR215      0.1736
    163  C         12.4650    2.1050   29.2040 C.2   215  TYR215      0.2596
    164  O         11.7140    2.0380   28.2450 O.2   215  TYR215     -0.2718
    165  CB        13.7310    0.2370   30.2380 C.3   215  TYR215      0.0548
    166  CG        13.8550   -0.8130   31.3180 C.ar  215  TYR215     -0.0200
    167  CD1       14.0370   -0.4510   32.6510 C.ar  215  TYR215     -0.0009
    168  CD2       13.8080   -2.1690   31.0060 C.ar  215  TYR215     -0.0009
    169  CE1       14.1730   -1.4110   33.6480 C.ar  215  TYR215      0.0417
    170  CE2       13.9430   -3.1410   31.9940 C.ar  215  TYR215      0.0417
    171  CZ        14.1270   -2.7550   33.3160 C.ar  215  TYR215      0.1957
    172  OH        14.2740   -3.7070   34.3040 O.3   215  TYR215     -0.2866
    173  N         13.3340    3.0990   29.3760 N.am  216  GLY216     -0.1942
    174  CA        13.4870    4.1430   28.3740 C.3   216  GLY216      0.2014
    175  C         14.5240    3.6730   27.3630 C.2   216  GLY216      0.2639
    176  O         15.5170    3.0770   27.7370 O.2   216  GLY216     -0.2714
    177  N         14.2970    3.9300   26.0820 N.am  217  ILE217     -0.1963
    178  CA        15.2380    3.4740   25.0650 C.3   217  ILE217      0.1727
    179  C         16.0180    4.6130   24.4160 C.2   217  ILE217      0.2616
    180  O         15.4400    5.5220   23.8430 O.2   217  ILE217     -0.2715
    181  CB        14.5060    2.6950   23.9640 C.3   217  ILE217      0.0290
    182  CG1       13.4570    1.7710   24.5870 C.3   217  ILE217      0.0022
    183  CG2       15.5110    1.8850   23.1460 C.3   217  ILE217      0.0023
    184  CD1       14.0230    0.7590   25.5370 C.3   217  ILE217      0.0001
    185  N         17.3420    4.5520   24.5010 N.am  218  TYR218     -0.1974
    186  CA        18.1830    5.5990   23.9270 C.3   218  TYR218      0.1639
    187  C         19.0500    5.1070   22.7800 C.2   218  TYR218      0.2290
    188  O         19.4630    3.9440   22.7590 O.2   218  TYR218     -0.2864
    189  CB        19.1110    6.1810   24.9920 C.3   218  TYR218      0.0560
    190  CG        18.4140    6.6910   26.2210 C.ar  218  TYR218     -0.0198
    191  CD1       17.9200    5.8080   27.1850 C.ar  218  TYR218     -0.0009
    192  CD2       18.2410    8.0560   26.4250 C.ar  218  TYR218     -0.0009
    193  CE1       17.2690    6.2710   28.3220 C.ar  218  TYR218      0.0417
    194  CE2       17.5910    8.5270   27.5580 C.ar  218  TYR218      0.0417
    195  CZ        17.1070    7.6260   28.5010 C.ar  218  TYR218      0.1957
    196  OH        16.4430    8.0900   29.6050 O.3   218  TYR218     -0.2866
@<TRIPOS>BOND
     1    18    16   ar
     2    15    16    1
     3    15    14    1
     4    16    17   ar
     5    14    11    1
     6     1     2    1
     7     5     6    1
     8     5     2    1
     9    10    11    1
    10    10     3   am
    11     6     7    1
    12     2     3    1
    13    11    12    1
    14     3     4    2
    15     7     8    1
    16    12    19   am
    17    12    13    2
    18     8     9    1
    19    24    23    1
    20    19    20    1
    21    25    23    1
    22    23    20    1
    23    20    21    1
    24    26    21   am
    25    26    27    1
    26    21    22    2
    27    27    28    1
    28    27    30    1
    29    28    29    2
    30    32    34   ar
    31    32    31   ar
    32    34    36   ar
    33    76    74    1
    34    30    31    1
    35    31    33   ar
    36    36    37    1
    37    36    35   ar
    38    75    73    1
    39    74    73    1
    40    73    70    1
    41    33    35   ar
    42    66    64   ar
    43    66    68   ar
    44    64    63   ar
    45    70    69    1
    46    70    71    1
    47    69    60   am
    48    72    71    2
    49    68    67   ar
    50   123   122    1
    51    63    62    1
    52    63    65   ar
    53    62    59    1
    54    60    59    1
    55    60    61    2
    56    59    58    1
    57    67    65   ar
    58   132   130   ar
    59   132   133   ar
    60   130   129   ar
    61   121   120    2
    62   122   119    1
    63   129   128    1
    64   129   131   ar
    65   133   135   ar
    66   133   131   ar
    67   135   137   ar
    68   128   125    1
    69   119   120    1
    70   119   118    1
    71   131   134   ar
    72   109   110    1
    73   109   106    1
    74   104   102   am
    75   120   124   am
    76   108   107    2
    77   107   106    1
    78   114   113    2
    79   137   136   ar
    80   134   136   ar
    81   103   102    2
    82   102   101    1
    83   124   125    1
    84   106   105    1
    85   125   126    1
    86   118   113   am
    87   113   112    1
    88   188   187    2
    89   187   186    1
    90   183   181    1
    91   101   100    1
    92   111   112    1
    93   126   138   am
    94   126   127    2
    95   138   139    1
    96   180   179    2
    97   112   115    1
    98   186   185    1
    99   186   189    1
   100   181   182    1
   101   181   178    1
   102    48    46    1
   103   179   185   am
   104   179   178    1
   105   141   140    2
   106   149   148   ar
   107   182   184    1
   108   115   116    1
   109   115   117    1
   110   100    97    1
   111   148   147    1
   112   148   150   ar
   113   147   146    1
   114   139   140    1
   115   140   142   am
   116   189   190    1
   117    97    98    1
   118    97    96    1
   119   178   177    1
   120    98    99    2
   121    46    45    2
   122    46    47    1
   123   142   143    1
   124   143   146    1
   125   143   144    1
   126    45    44    1
   127   177   175   am
   128   190   192   ar
   129   190   191   ar
   130    96    92   am
   131    93    92    2
   132   192   194   ar
   133   151   144   am
   134   151   152    1
   135   144   145    2
   136    92    91    1
   137   191   193   ar
   138    44    43    1
   139   175   176    2
   140   175   174    1
   141   152   153    1
   142   154   153    2
   143   194   195   ar
   144    43    42    1
   145    91    90    1
   146    91    94    1
   147   153   155   am
   148   164   163    2
   149    52    51    2
   150   193   195   ar
   151    57    55   ar
   152   174   173    1
   153   160    95    1
   154   160   159    1
   155   195   196    1
   156    90    87   am
   157    95    94    1
   158    38    39    1
   159    54    55    1
   160    54    53    1
   161    42    39    1
   162    89    86    1
   163    55    56   ar
   164   163   173   am
   165   163   162    1
   166    51    50    1
   167   155   156    1
   168    87    88    2
   169    87    86    1
   170    39    40    1
   171   161   162    1
   172   159   156    1
   173    86    85    1
   174    50    53    1
   175    50    49    1
   176   156   157    1
   177   165   162    1
   178   165   166    1
   179    84    82   ar
   180    83    82   ar
   181    40    41    2
   182   168   166   ar
   183   168   170   ar
   184    85    79   am
   185    82    81    1
   186   166   167   ar
   187   157   158    2
   188   170   171   ar
   189    79    80    2
   190    79    78    1
   191   167   169   ar
   192    81    78    1
   193    78    77    1
   194   171   169   ar
   195   171   172    1
