@<TRIPOS>MOLECULE
tmp/2bqyA00.pdb
 160 150 0 0 0
SMALL
GASTEIGER

@<TRIPOS>ATOM
      1  N         10.3770   56.1650    9.1760 N.3    18  ILE18      -0.1245
      2  CA        10.2340   55.7800   10.5700 C.3    18  ILE18       0.1561
      3  C         10.2000   57.0170   11.4420 C.2    18  ILE18       0.2260
      4  O         11.0090   57.9150   11.2840 O.2    18  ILE18      -0.2867
      5  CB        11.4060   54.8980   11.0210 C.3    18  ILE18       0.0252
      6  CG1       11.6130   53.7600   10.0220 C.3    18  ILE18       0.0019
      7  CG2       11.1110   54.3210   12.3850 C.3    18  ILE18       0.0019
      8  CD1       12.9360   52.9920   10.2070 C.3    18  ILE18       0.0001
      9  N          9.4000   49.6840   11.8670 N.3    25  LYS25      -0.1245
     10  CA        10.2130   50.1300   10.7480 C.3    25  LYS25       0.1561
     11  C          9.4850   50.0180    9.4030 C.2    25  LYS25       0.2260
     12  O          9.2200   48.9110    8.9170 O.2    25  LYS25      -0.2867
     13  CB        11.5130   49.3190   10.7030 C.3    25  LYS25       0.0271
     14  CG        12.2880   49.4470    9.4000 C.3    25  LYS25       0.0035
     15  CD        13.6700   48.8110    9.5170 C.3    25  LYS25       0.0206
     16  CE        14.3810   48.7590    8.1620 C.3    25  LYS25       0.1093
     17  NZ        14.5350   50.1040    7.5450 N.3    25  LYS25      -0.1314
     18  N          8.1440   46.9950    6.9740 N.3    38  ASP38      -0.1225
     19  CA         9.3290   46.1450    6.8690 C.3    38  ASP38       0.1805
     20  C          9.5060   45.2410    8.0810 C.2    38  ASP38       0.2597
     21  O          9.8180   44.0620    7.9190 O.2    38  ASP38      -0.2718
     22  CB        10.5710   47.0110    6.6610 C.3    38  ASP38       0.1424
     23  CG        11.6960   46.2480    5.9940 C.2    38  ASP38       0.3668
     24  OD1       11.4760   45.6890    4.9000 O.co2  38  ASP38      -0.2456
     25  OD2       12.8010   46.1900    6.5640 O.co2  38  ASP38      -0.2456
     26  N          9.3280   45.7870    9.2810 N.am   39  ARG39      -0.1979
     27  CA         9.4330   44.9710   10.4940 C.3    39  ARG39       0.1597
     28  C          9.1490   45.6960   11.7910 C.2    39  ARG39       0.2287
     29  O          9.1400   46.9150   11.8280 O.2    39  ARG39      -0.2864
     30  CB        10.8120   44.3440   10.6050 C.3    39  ARG39       0.0334
     31  CG        11.8560   45.2730   11.1540 C.3    39  ARG39       0.0492
     32  CD        13.2050   44.5740   11.3020 C.3    39  ARG39       0.2205
     33  NE        13.5420   43.7710   10.1230 N.pl3  39  ARG39      -0.0865
     34  CZ        13.1450   42.5110    9.9510 C.cat  39  ARG39       0.5346
     35  NH1       13.4670   41.8260    8.8480 N.pl3  39  ARG39       0.1354
     36  NH2       12.4460   41.9210   10.9200 N.pl3  39  ARG39       0.1354
     37  N         13.2990   53.7140   17.8520 N.3    47  TYR47      -0.1241
     38  CA        14.2330   54.6060   17.1770 C.3    47  TYR47       0.1605
     39  C         14.5160   55.8900   17.9220 C.2    47  TYR47       0.2264
     40  O         13.6030   56.5650   18.3640 O.2    47  TYR47      -0.2867
     41  CB        13.7520   54.9090   15.7600 C.3    47  TYR47       0.0534
     42  CG        13.9640   53.7450   14.8120 C.ar   47  TYR47      -0.0201
     43  CD1       13.1770   52.5890   14.9080 C.ar   47  TYR47      -0.0009
     44  CD2       14.9760   53.7820   13.8530 C.ar   47  TYR47      -0.0009
     45  CE1       13.3880   51.4980   14.0790 C.ar   47  TYR47       0.0417
     46  CE2       15.2010   52.6920   13.0160 C.ar   47  TYR47       0.0417
     47  CZ        14.4010   51.5530   13.1390 C.ar   47  TYR47       0.1957
     48  OH        14.6290   50.4700   12.3270 O.3    47  TYR47      -0.2866
     49  N         13.7440   58.3940   11.0890 N.3    51  TYR51      -0.1241
     50  CA        14.5480   57.7010   10.0970 C.3    51  TYR51       0.1605
     51  C         13.9370   57.8060    8.7020 C.2    51  TYR51       0.2264
     52  O         12.7380   57.6200    8.5130 O.2    51  TYR51      -0.2867
     53  CB        14.6770   56.2220   10.4720 C.3    51  TYR51       0.0534
     54  CG        15.7040   55.4770    9.6300 C.ar   51  TYR51      -0.0201
     55  CD1       17.0460   55.4620    9.9910 C.ar   51  TYR51      -0.0009
     56  CD2       15.3320   54.8050    8.4560 C.ar   51  TYR51      -0.0009
     57  CE1       17.9880   54.7980    9.2080 C.ar   51  TYR51       0.0417
     58  CE2       16.2650   54.1480    7.6760 C.ar   51  TYR51       0.0417
     59  CZ        17.5800   54.1490    8.0600 C.ar   51  TYR51       0.1957
     60  OH        18.5100   53.4980    7.3080 O.3    51  TYR51      -0.2866
     61  N         24.5420   50.3150   -0.4570 N.3    61  ASP61      -0.1239
     62  CA        23.7910   49.0710   -0.5650 C.3    61  ASP61       0.1674
     63  C         22.8270   48.9840   -1.7450 C.2    61  ASP61       0.2266
     64  O         22.0070   48.0540   -1.8160 O.2    61  ASP61      -0.2867
     65  CB        23.0340   48.8110    0.7420 C.3    61  ASP61       0.1410
     66  CG        21.9230   49.8290    1.0030 C.2    61  ASP61       0.3668
     67  OD1       21.8660   50.8710    0.2960 O.co2  61  ASP61      -0.2456
     68  OD2       21.1170   49.5680    1.9360 O.co2  61  ASP61      -0.2456
     69  N         20.6380   56.5250    3.3420 N.3    66  ASP66      -0.1239
     70  CA        19.8060   56.7170    4.5130 C.3    66  ASP66       0.1674
     71  C         20.2450   57.9390    5.3170 C.2    66  ASP66       0.2266
     72  O         21.3970   58.3810    5.2590 O.2    66  ASP66      -0.2867
     73  CB        19.8710   55.4830    5.4060 C.3    66  ASP66       0.1410
     74  CG        19.2740   54.2580    4.7570 C.2    66  ASP66       0.3668
     75  OD1       18.0630   54.3090    4.4220 O.co2  66  ASP66      -0.2456
     76  OD2       20.0160   53.2540    4.5950 O.co2  66  ASP66      -0.2456
     77  N         27.3540   45.9870    8.8140 N.3    93  ASP93      -0.1225
     78  CA        26.3790   44.9420    9.0860 C.3    93  ASP93       0.1805
     79  C         26.5660   43.7280    8.1790 C.2    93  ASP93       0.2597
     80  O         27.4810   43.6770    7.3630 O.2    93  ASP93      -0.2718
     81  CB        24.9530   45.4810    8.9490 C.3    93  ASP93       0.1424
     82  CG        24.6390   45.9590    7.5450 C.2    93  ASP93       0.3668
     83  OD1       25.2840   45.4840    6.5860 O.co2  93  ASP93      -0.2456
     84  OD2       23.7240   46.7980    7.3960 O.co2  93  ASP93      -0.2456
     85  N         25.6920   42.7420    8.3390 N.am   94  GLU94      -0.1979
     86  CA        25.7580   41.5120    7.5570 C.3    94  GLU94       0.1602
     87  C         25.8170   41.7560    6.0520 C.2    94  GLU94       0.2287
     88  O         26.3320   40.9320    5.3150 O.2    94  GLU94      -0.2864
     89  CB        24.5520   40.6030    7.8880 C.3    94  GLU94       0.0415
     90  CG        23.1850   41.0630    7.3390 C.3    94  GLU94       0.1163
     91  CD        22.6570   42.3160    8.0030 C.2    94  GLU94       0.3649
     92  OE1       22.9680   42.5270    9.1910 O.co2  94  GLU94      -0.2457
     93  OE2       21.9150   43.0810    7.3470 O.co2  94  GLU94      -0.2457
     94  N         27.7750   50.2250    6.0110 N.3    98  ASP98      -0.1239
     95  CA        26.5620   51.0340    5.9510 C.3    98  ASP98       0.1674
     96  C         26.8380   52.4740    6.4100 C.2    98  ASP98       0.2266
     97  O         27.5430   52.7250    7.3870 O.2    98  ASP98      -0.2867
     98  CB        25.4790   50.4040    6.8290 C.3    98  ASP98       0.1410
     99  CG        24.1200   51.0220    6.6080 C.2    98  ASP98       0.3668
    100  OD1       23.2150   50.7190    7.4180 O.co2  98  ASP98      -0.2456
    101  OD2       23.9560   51.7910    5.6290 O.co2  98  ASP98      -0.2456
    102  N         25.0300   56.1820    7.4430 N.3   100  LYS100     -0.1245
    103  CA        23.7900   56.8500    7.8010 C.3   100  LYS100      0.1561
    104  C         24.0130   58.3240    8.1150 C.2   100  LYS100      0.2260
    105  O         24.6070   58.6760    9.1310 O.2   100  LYS100     -0.2867
    106  CB        23.1290   56.1430    8.9860 C.3   100  LYS100      0.0271
    107  CG        22.9090   54.6670    8.7310 C.3   100  LYS100      0.0035
    108  CD        21.9030   54.0750    9.6390 C.3   100  LYS100      0.0206
    109  CE        21.5850   52.6420    9.2150 C.3   100  LYS100      0.1093
    110  NZ        21.2670   52.5340    7.7680 N.3   100  LYS100     -0.1314
    111  N         21.8010   51.2390   17.2870 N.3   134  PHE134     -0.1241
    112  CA        22.1880   50.5190   16.0810 C.3   134  PHE134      0.1605
    113  C         23.0740   49.3160   16.3760 C.2   134  PHE134      0.2264
    114  O         23.0100   48.2800   15.6930 O.2   134  PHE134     -0.2867
    115  CB        22.9040   51.4700   15.1280 C.3   134  PHE134      0.0534
    116  CG        21.9770   52.3830   14.3840 C.ar  134  PHE134     -0.0203
    117  CD1       21.1460   51.8930   13.3700 C.ar  134  PHE134     -0.0042
    118  CD2       21.9350   53.7380   14.6950 C.ar  134  PHE134     -0.0042
    119  CE1       20.2700   52.7450   12.6810 C.ar  134  PHE134     -0.0003
    120  CE2       21.0700   54.5880   14.0230 C.ar  134  PHE134     -0.0003
    121  CZ        20.2370   54.0910   13.0060 C.ar  134  PHE134     -0.0000
    122  N         20.0280   46.9300   18.1410 N.3   137  TYR137     -0.1227
    123  CA        18.6660   46.7490   17.6500 C.3   137  TYR137      0.1736
    124  C         18.4680   45.5430   16.7280 C.2   137  TYR137      0.2595
    125  O         17.3310   45.2350   16.3450 O.2   137  TYR137     -0.2718
    126  CB        18.1470   48.0370   16.9740 C.3   137  TYR137      0.0548
    127  CG        18.5370   48.2250   15.5200 C.ar  137  TYR137     -0.0200
    128  CD1       19.8650   48.1060   15.1030 C.ar  137  TYR137     -0.0009
    129  CD2       17.5730   48.5420   14.5670 C.ar  137  TYR137     -0.0009
    130  CE1       20.2210   48.2970   13.7670 C.ar  137  TYR137      0.0417
    131  CE2       17.9090   48.7390   13.2320 C.ar  137  TYR137      0.0417
    132  CZ        19.2350   48.6180   12.8300 C.ar  137  TYR137      0.1957
    133  OH        19.5690   48.8330   11.5040 O.3   137  TYR137     -0.2866
    134  N         19.5610   44.8650   16.3790 N.am  138  LYS138     -0.1980
    135  CA        19.4570   43.6840   15.5250 C.3   138  LYS138      0.1596
    136  C         20.0370   42.4420   16.1810 C.2   138  LYS138      0.2287
    137  O         20.2540   41.4440   15.5250 O.2   138  LYS138     -0.2864
    138  CB        20.1290   43.9220   14.1650 C.3   138  LYS138      0.0298
    139  CG        19.2530   44.6810   13.1690 C.3   138  LYS138      0.0038
    140  CD        19.6480   44.4170   11.7280 C.3   138  LYS138      0.0206
    141  CE        20.7570   45.3110   11.2490 C.3   138  LYS138      0.1093
    142  NZ        21.2450   44.9350    9.8610 N.3   138  LYS138     -0.1314
    143  N         17.7430   39.3550   15.8830 N.3   141  GLU141     -0.1245
    144  CA        17.3740   38.9670   14.5270 C.3   141  GLU141      0.1567
    145  C         18.3960   38.0050   13.9380 C.2   141  GLU141      0.2260
    146  O         19.5220   38.3890   13.6560 O.2   141  GLU141     -0.2867
    147  CB        17.2490   40.2060   13.6340 C.3   141  GLU141      0.0388
    148  CG        16.0360   41.0630   13.9390 C.3   141  GLU141      0.1160
    149  CD        15.8580   42.1860   12.9520 C.2   141  GLU141      0.3649
    150  OE1       15.9420   41.9020   11.7400 O.co2 141  GLU141     -0.2457
    151  OE2       15.6130   43.3380   13.3770 O.co2 141  GLU141     -0.2457
    152  N         21.7450   38.3700   11.5380 N.3   144  LYS144     -0.1245
    153  CA        21.8270   39.8120   11.3260 C.3   144  LYS144      0.1561
    154  C         22.6590   40.4070   12.4570 C.2   144  LYS144      0.2260
    155  O         22.6040   39.9160   13.6120 O.2   144  LYS144     -0.2867
    156  CB        20.4340   40.4520   11.3170 C.3   144  LYS144      0.0271
    157  CG        19.5960   40.1030   10.1030 C.3   144  LYS144      0.0035
    158  CD        18.2560   40.8120   10.1470 C.3   144  LYS144      0.0206
    159  CE        17.3550   40.3850    8.9880 C.3   144  LYS144      0.1093
    160  NZ        18.0970   40.5180    7.6780 N.3   144  LYS144     -0.1314
@<TRIPOS>BOND
     1    64    63    2
     2    63    62    1
     3    62    61    1
     4    62    65    1
     5    67    66   ar
     6    65    66    1
     7    66    68   ar
     8    69    70    1
     9    75    74   ar
    10    70    71    1
    11    70    73    1
    12    76    74   ar
    13    74    73    1
    14    24    23   ar
    15    72    71    2
    16    88    87    2
    17   101    99   ar
    18    95    94    1
    19    95    96    1
    20    95    98    1
    21    23    25   ar
    22    23    22    1
    23    87    86    1
    24    96    97    2
    25    83    82   ar
    26    99    98    1
    27    99   100   ar
    28    22    19    1
    29    19    18    1
    30    19    20    1
    31    60    59    1
    32    90    89    1
    33    90    91    1
    34    93    91   ar
    35    80    79    2
    36    84    82   ar
    37   102   103    1
    38    17    16    1
    39    82    81    1
    40    86    89    1
    41    86    85    1
    42    58    59   ar
    43    58    56   ar
    44   160   159    1
    45   110   109    1
    46   103   104    1
    47   103   106    1
    48    21    20    2
    49    91    92   ar
    50    59    57   ar
    51    20    26   am
    52   104   105    2
    53    16    15    1
    54    79    85   am
    55    79    78    1
    56    56    54   ar
    57    52    51    2
    58    51    50    1
    59   107   106    1
    60   107   108    1
    61    77    78    1
    62    35    34    1
    63    12    11    2
    64    81    78    1
    65   159   158    1
    66     1     2    1
    67    57    55   ar
    68   109   108    1
    69    26    27    1
    70    14    15    1
    71    14    13    1
    72    11    10    1
    73    54    55   ar
    74    54    53    1
    75   142   141    1
    76    34    33    2
    77    34    36    1
    78     6     8    1
    79     6     5    1
    80    50    53    1
    81    50    49    1
    82   157   158    1
    83   157   156    1
    84    33    32    1
    85    27    30    1
    86    27    28    1
    87     2     5    1
    88     2     3    1
    89    30    31    1
    90    13    10    1
    91    10     9    1
    92     5     7    1
    93    31    32    1
    94   141   140    1
    95     4     3    2
    96   156   153    1
    97   153   152    1
    98   153   154    1
    99   133   132    1
   100   140   139    1
   101   150   149   ar
   102    28    29    2
   103    48    47    1
   104   154   155    2
   105   119   121   ar
   106   119   117   ar
   107   132   131   ar
   108   132   130   ar
   109   149   151   ar
   110   149   148    1
   111   121   120   ar
   112    46    47   ar
   113    46    44   ar
   114    47    45   ar
   115   139   138    1
   116   131   129   ar
   117   117   116   ar
   118   147   148    1
   119   147   144    1
   120   146   145    2
   121   130   128   ar
   122    44    42   ar
   123   145   144    1
   124   120   118   ar
   125    45    43   ar
   126   138   135    1
   127   116   118   ar
   128   116   115    1
   129   144   143    1
   130   129   127   ar
   131    42    43   ar
   132    42    41    1
   133   128   127   ar
   134   115   112    1
   135   127   126    1
   136   135   136    1
   137   135   134    1
   138   137   136    2
   139   114   113    2
   140    41    38    1
   141   112   113    1
   142   112   111    1
   143   125   124    2
   144   134   124   am
   145   124   123    1
   146   126   123    1
   147    38    37    1
   148    38    39    1
   149   123   122    1
   150    39    40    2
