@<TRIPOS>MOLECULE
tmp/2br1A00.pdb
 142 134 0 0 0
SMALL
GASTEIGER

@<TRIPOS>ATOM
      1  N         18.0220   -7.2420    5.5800 N.3    14  LEU14      -0.1231
      2  CA        18.6650   -6.4200    6.6050 C.3    14  LEU14       0.1693
      3  C         18.9840   -7.2560    7.8470 C.2    14  LEU14       0.2593
      4  O         20.0490   -7.1200    8.4440 O.2    14  LEU14      -0.2718
      5  CB        17.7720   -5.2460    6.9660 C.3    14  LEU14       0.0284
      6  CG        17.8740   -3.9560    6.1320 C.3    14  LEU14       0.0019
      7  CD1       18.9890   -3.9650    5.0670 C.3    14  LEU14       0.0001
      8  CD2       16.5270   -3.5620    5.5510 C.3    14  LEU14       0.0001
      9  N         18.0590   -8.1270    8.2150 N.am   15  GLY15      -0.1942
     10  CA        18.3070   -9.0930    9.2650 C.3    15  GLY15       0.2014
     11  C         17.1170   -9.9680    9.5720 C.2    15  GLY15       0.2639
     12  O         16.0630   -9.8220    8.9700 O.2    15  GLY15      -0.2714
     13  N         17.3060  -10.8940   10.5110 N.am   16  GLU16      -0.1963
     14  CA        16.2520  -11.8210   10.9410 C.3    16  GLU16       0.1733
     15  C         15.7620  -11.3800   12.3350 C.2    16  GLU16       0.2616
     16  O         16.5690  -11.0200   13.2110 O.2    16  GLU16      -0.2715
     17  CB        16.7650  -13.2770   10.9640 C.3    16  GLU16       0.0429
     18  CG        16.2680  -14.1900    9.8190 C.3    16  GLU16       0.1163
     19  CD        17.1650  -14.2130    8.5700 C.2    16  GLU16       0.3649
     20  OE1       18.0940  -13.3820    8.4470 O.co2  16  GLU16      -0.2457
     21  OE2       16.9380  -15.0690    7.6810 O.co2  16  GLU16      -0.2457
     22  N         14.4360  -11.3390   12.4890 N.am   17  GLY17      -0.1955
     23  CA        13.7750  -11.1580   13.7730 C.3    17  GLY17       0.1869
     24  C         13.0840  -12.4550   14.1620 C.2    17  GLY17       0.2309
     25  O         13.1810  -13.4540   13.4510 O.2    17  GLY17      -0.2863
     26  N         13.6790   -8.8300    7.8720 N.3    22  VAL22      -0.1245
     27  CA        13.4540   -7.4960    7.3350 C.3    22  VAL22       0.1561
     28  C         14.2940   -7.3480    6.0950 C.2    22  VAL22       0.2260
     29  O         15.4880   -7.5780    6.1300 O.2    22  VAL22      -0.2867
     30  CB        13.8310   -6.3750    8.3250 C.3    22  VAL22       0.0252
     31  CG1       13.4450   -5.0160    7.7480 C.3    22  VAL22       0.0019
     32  CG2       13.1490   -6.5800    9.6590 C.3    22  VAL22       0.0019
     33  N         12.3960   -0.1350    4.5480 N.3    35  ALA35      -0.1245
     34  CA        12.5330   -1.4510    5.1540 C.3    35  ALA35       0.1562
     35  C         11.1550   -2.1170    5.2150 C.2    35  ALA35       0.2260
     36  O         10.1330   -1.4730    5.4750 O.2    35  ALA35      -0.2867
     37  CB        13.2010   -1.3580    6.5650 C.3    35  ALA35       0.0290
     38  N          9.3180   -5.1250    7.0390 N.3    37  LYS37      -0.1245
     39  CA         9.3820   -6.0680    8.1250 C.3    37  LYS37       0.1561
     40  C          8.3540   -7.1410    7.8080 C.2    37  LYS37       0.2260
     41  O          7.1610   -6.8430    7.6970 O.2    37  LYS37      -0.2867
     42  CB         9.0840   -5.3860    9.4700 C.3    37  LYS37       0.0271
     43  CG         8.9030   -6.3680   10.6240 C.3    37  LYS37       0.0035
     44  CD         8.5750   -5.6670   11.9270 C.3    37  LYS37       0.0206
     45  CE         8.4850   -6.6550   13.0960 C.3    37  LYS37       0.1093
     46  NZ         8.7400   -5.9720   14.3920 N.3    37  LYS37      -0.1314
     47  N         11.1660    5.5490   14.1980 N.3    64  VAL64      -0.1245
     48  CA        11.0770    4.9730   12.8650 C.3    64  VAL64       0.1561
     49  C          9.6720    5.1850   12.2470 C.2    64  VAL64       0.2260
     50  O          8.6550    4.7310   12.7890 O.2    64  VAL64      -0.2867
     51  CB        11.4680    3.4770   12.8880 C.3    64  VAL64       0.0252
     52  CG1       11.1600    2.8110   11.5430 C.3    64  VAL64       0.0019
     53  CG2       12.9510    3.3260   13.2480 C.3    64  VAL64       0.0019
     54  N          8.4440    0.6140    6.6000 N.3    80  LEU80      -0.1231
     55  CA         9.0270    1.4470    7.6310 C.3    80  LEU80       0.1693
     56  C         10.1940    2.2410    7.0860 C.2    80  LEU80       0.2592
     57  O         10.8320    1.8540    6.1210 O.2    80  LEU80      -0.2718
     58  CB         9.5530    0.5590    8.7620 C.3    80  LEU80       0.0284
     59  CG         8.5570   -0.4060    9.4260 C.3    80  LEU80       0.0019
     60  CD1        9.2980   -1.5270   10.1580 C.3    80  LEU80       0.0001
     61  CD2        7.6730    0.3540   10.3560 C.3    80  LEU80       0.0001
     62  N         10.4960    3.3360    7.7520 N.am   81  GLU81      -0.1966
     63  CA        11.6510    4.1400    7.4230 C.3    81  GLU81       0.1733
     64  C         12.9090    3.3230    7.4730 C.2    81  GLU81       0.2616
     65  O         13.1890    2.6510    8.4770 O.2    81  GLU81      -0.2715
     66  CB        11.7550    5.2800    8.4240 C.3    81  GLU81       0.0429
     67  CG        12.9970    6.1500    8.3260 C.3    81  GLU81       0.1163
     68  CD        12.9260    7.3170    9.2890 C.2    81  GLU81       0.3649
     69  OE1       13.8750    8.1360    9.2730 O.co2  81  GLU81      -0.2457
     70  OE2       11.9500    7.3850   10.0910 O.co2  81  GLU81      -0.2457
     71  N         13.6820    3.3910    6.3980 N.am   82  TYR82      -0.1960
     72  CA        14.9680    2.7300    6.3350 C.3    82  TYR82       0.1771
     73  C         16.0560    3.5190    7.0590 C.2    82  TYR82       0.2620
     74  O         16.3200    4.7030    6.7640 O.2    82  TYR82      -0.2715
     75  CB        15.3990    2.5160    4.8760 C.3    82  TYR82       0.0574
     76  CG        16.7740    1.9040    4.7410 C.ar   82  TYR82      -0.0198
     77  CD1       17.1410    0.7920    5.4810 C.ar   82  TYR82      -0.0009
     78  CD2       17.7160    2.4480    3.8520 C.ar   82  TYR82      -0.0009
     79  CE1       18.3800    0.2350    5.3380 C.ar   82  TYR82       0.0417
     80  CE2       18.9450    1.8780    3.6930 C.ar   82  TYR82       0.0417
     81  CZ        19.2710    0.7700    4.4310 C.ar   82  TYR82       0.1957
     82  OH        20.5200    0.2360    4.3020 O.3    82  TYR82      -0.2866
     83  N         16.7410    2.8450    7.9750 N.am   83  CYS83      -0.1954
     84  CA        17.7430    3.4870    8.7900 C.3    83  CYS83       0.1843
     85  C         19.0520    2.8360    8.4290 C.2    83  CYS83       0.2626
     86  O         19.4200    1.7970    8.9620 O.2    83  CYS83      -0.2714
     87  CB        17.4130    3.3290   10.2900 C.3    83  CYS83       0.0997
     88  SG        15.8460    4.0970   10.7250 S.3    83  CYS83      -0.0797
     89  N         19.7770    3.4840    7.5290 N.am   84  SER84      -0.1936
     90  CA        20.9160    2.8850    6.8550 C.3    84  SER84       0.2055
     91  C         22.1460    2.7560    7.7440 C.2    84  SER84       0.2644
     92  O         23.0390    1.9450    7.4730 O.2    84  SER84      -0.2714
     93  CB        21.2480    3.7040    5.6030 C.3    84  SER84       0.2130
     94  OG        21.8360    4.9420    5.9570 O.3    84  SER84      -0.2179
     95  N         22.2020    3.5630    8.8050 N.am   85  GLY85      -0.1939
     96  CA        23.2180    3.4470    9.8270 C.3    85  GLY85       0.2014
     97  C         23.1900    2.2030   10.7170 C.2    85  GLY85       0.2639
     98  O         24.1630    1.9510   11.4440 O.2    85  GLY85      -0.2714
     99  N         22.1110    1.4270   10.6630 N.am   86  GLY86      -0.1939
    100  CA        22.0090    0.1930   11.4130 C.3    86  GLY86       0.2014
    101  C         21.7240    0.4570   12.9080 C.2    86  GLY86       0.2638
    102  O         21.1870    1.4810   13.2920 O.2    86  GLY86      -0.2714
    103  N         22.0670   -0.5090   13.7260 N.am   87  GLU87      -0.1977
    104  CA        21.8400   -0.4790   15.1890 C.3    87  GLU87       0.1602
    105  C         22.8000    0.3500   15.9240 C.2    87  GLU87       0.2287
    106  O         23.9850    0.3040   15.6480 O.2    87  GLU87      -0.2864
    107  CB        21.9460   -1.8740   15.7760 C.3    87  GLU87       0.0415
    108  CG        20.8910   -2.7990   15.2390 C.3    87  GLU87       0.1163
    109  CD        21.0670   -4.2160   15.6940 C.2    87  GLU87       0.3649
    110  OE1       20.4260   -5.1100   15.0930 O.co2  87  GLU87      -0.2457
    111  OE2       21.8190   -4.4310   16.6410 O.co2  87  GLU87      -0.2457
    112  N         19.9070   -2.4710   20.3240 N.3   130  GLU130     -0.1245
    113  CA        19.4070   -3.2250   19.1750 C.3   130  GLU130      0.1567
    114  C         18.1680   -2.6270   18.5210 C.2   130  GLU130      0.2260
    115  O         17.9440   -2.7900   17.3050 O.2   130  GLU130     -0.2867
    116  CB        19.1230   -4.6890   19.5850 C.3   130  GLU130      0.0388
    117  CG        20.3500   -5.3920   20.1090 C.3   130  GLU130      0.1160
    118  CD        20.5110   -5.3800   21.6270 C.2   130  GLU130      0.3649
    119  OE1       20.2000   -4.3550   22.3020 O.co2 130  GLU130     -0.2457
    120  OE2       21.0130   -6.4080   22.1430 O.co2 130  GLU130     -0.2457
    121  N         17.9000    2.5200   16.0830 N.3   133  LEU133     -0.1245
    122  CA        18.5190    2.5610   14.7760 C.3   133  LEU133      0.1561
    123  C         18.9820    3.9790   14.4450 C.2   133  LEU133      0.2260
    124  O         18.6000    4.9740   15.0840 O.2   133  LEU133     -0.2867
    125  CB        17.5600    2.0680   13.6880 C.3   133  LEU133      0.0270
    126  CG        16.8760    0.7430   14.0260 C.3   133  LEU133      0.0019
    127  CD1       15.9570    0.3290   12.9080 C.3   133  LEU133      0.0001
    128  CD2       17.8680   -0.3370   14.3940 C.3   133  LEU133      0.0001
    129  N         12.7310    2.0360   17.2920 N.3   143  SER143     -0.1202
    130  CA        12.1440    1.0360   16.4210 C.3   143  SER143      0.2020
    131  C         11.5680   -0.1220   17.2240 C.2   143  SER143      0.2618
    132  O         11.9570   -0.3790   18.3980 O.2   143  SER143     -0.2717
    133  CB        13.1850    0.4610   15.4260 C.3   143  SER143      0.2103
    134  OG        14.0500   -0.4690   16.0690 O.3   143  SER143     -0.2182
    135  N         10.6710   -0.8310   16.5430 N.am  144  ASP144     -0.1973
    136  CA        10.0460   -2.0590   17.0250 C.3   144  ASP144      0.1709
    137  C          9.0030   -1.7980   18.1060 C.2   144  ASP144      0.2293
    138  O          9.3020   -1.8060   19.2950 O.2   144  ASP144     -0.2864
    139  CB        11.0880   -3.0850   17.4930 C.3   144  ASP144      0.1436
    140  CG        10.4900   -4.5050   17.6750 C.2   144  ASP144      0.3671
    141  OD1       11.2760   -5.4830   17.8260 O.co2 144  ASP144     -0.2456
    142  OD2        9.2590   -4.7270   17.7150 O.co2 144  ASP144     -0.2456
@<TRIPOS>BOND
     1    80    78   ar
     2    80    81   ar
     3    78    76   ar
     4    82    81    1
     5    81    79   ar
     6    33    34    1
     7    76    75    1
     8    76    77   ar
     9    75    72    1
    10     7     6    1
    11    34    35    1
    12    34    37    1
    13    35    36    2
    14    79    77   ar
    15     8     6    1
    16     1     2    1
    17    93    94    1
    18    93    90    1
    19    28    29    2
    20    28    27    1
    21    57    56    2
    22     6     5    1
    23    72    71    1
    24    72    73    1
    25    71    64   am
    26    54    55    1
    27     2     5    1
    28     2     3    1
    29    74    73    2
    30    90    89    1
    31    90    91    1
    32    38    39    1
    33    73    83   am
    34    56    55    1
    35    56    62   am
    36    27    26    1
    37    27    30    1
    38    63    64    1
    39    63    62    1
    40    63    66    1
    41    64    65    2
    42    92    91    2
    43    89    85   am
    44    55    58    1
    45    21    19   ar
    46    41    40    2
    47    91    95   am
    48    31    30    1
    49    40    39    1
    50     3     9   am
    51     3     4    2
    52    83    84    1
    53    39    42    1
    54     9    10    1
    55    30    32    1
    56    67    66    1
    57    67    68    1
    58    85    84    1
    59    85    86    2
    60    20    19   ar
    61    19    18    1
    62    58    59    1
    63    84    87    1
    64    95    96    1
    65    12    11    2
    66    10    11    1
    67    69    68   ar
    68    68    70   ar
    69    59    60    1
    70    59    61    1
    71    42    43    1
    72    11    13   am
    73    18    17    1
    74    96    97    1
    75    87    88    1
    76    13    14    1
    77    43    44    1
    78    99    97   am
    79    99   100    1
    80    97    98    2
    81    14    17    1
    82    14    15    1
    83   100   101    1
    84    52    51    1
    85    44    45    1
    86    49    50    2
    87    49    48    1
    88    15    22   am
    89    15    16    2
    90    22    23    1
    91    48    51    1
    92    48    47    1
    93    51    53    1
    94   101   102    2
    95   101   103   am
    96   127   126    1
    97    45    46    1
    98    25    24    2
    99   125   126    1
   100   125   122    1
   101   103   104    1
   102    23    24    1
   103   126   128    1
   104   123   122    1
   105   123   124    2
   106   122   121    1
   107   110   109   ar
   108   104   107    1
   109   104   105    1
   110   108   109    1
   111   108   107    1
   112   133   134    1
   113   133   130    1
   114   106   105    2
   115   109   111   ar
   116   130   131    1
   117   130   129    1
   118   135   136    1
   119   135   131   am
   120   136   139    1
   121   136   137    1
   122   131   132    2
   123   115   114    2
   124   139   140    1
   125   140   142   ar
   126   140   141   ar
   127   137   138    2
   128   114   113    1
   129   113   116    1
   130   113   112    1
   131   116   117    1
   132   117   118    1
   133   118   120   ar
   134   118   119   ar
