@<TRIPOS>MOLECULE
tmp/2br4E01.pdb
 177 169 0 0 0
SMALL
GASTEIGER

@<TRIPOS>ATOM
      1  N         39.9110   61.7390   64.7790 N.3    16  GLY16      -0.1210
      2  CA        39.3520   61.1550   65.9850 C.3    16  GLY16       0.1956
      3  C         39.4730   61.9940   67.2510 C.2    16  GLY16       0.2611
      4  O         39.0570   61.5410   68.3180 O.2    16  GLY16      -0.2717
      5  N         40.0210   63.2050   67.1470 N.am   17  LEU17      -0.1979
      6  CA        40.2540   64.0560   68.3140 C.3    17  LEU17       0.1596
      7  C         39.3090   65.2520   68.3940 C.2    17  LEU17       0.2287
      8  O         38.6040   65.4030   69.3870 O.2    17  LEU17      -0.2864
      9  CB        41.6950   64.5550   68.3290 C.3    17  LEU17       0.0297
     10  CG        42.7690   63.4690   68.3110 C.3    17  LEU17       0.0022
     11  CD1       44.1790   64.0730   68.4850 C.3    17  LEU17       0.0001
     12  CD2       42.4750   62.4050   69.3840 C.3    17  LEU17       0.0001
     13  N         36.0150   64.2900   77.2780 N.3    62  MET62      -0.1230
     14  CA        36.1440   62.8570   77.5140 C.3    62  MET62       0.1702
     15  C         35.8660   62.1310   76.2090 C.2    62  MET62       0.2592
     16  O         34.7510   62.1990   75.6990 O.2    62  MET62      -0.2718
     17  CB        35.1190   62.4090   78.5660 C.3    62  MET62       0.0401
     18  CG        35.6680   62.3000   79.9850 C.3    62  MET62       0.0596
     19  SD        36.1210   60.6020   80.4270 S.3    62  MET62      -0.1393
     20  CE        34.5830   59.9890   81.0180 C.3    62  MET62       0.0692
     21  N         36.8670   61.4370   75.6680 N.am   63  LEU63      -0.1966
     22  CA        36.7000   60.7250   74.3980 C.3    63  LEU63       0.1728
     23  C         36.1030   59.3330   74.5970 C.2    63  LEU63       0.2616
     24  O         35.8870   58.6070   73.6270 O.2    63  LEU63      -0.2715
     25  CB        38.0260   60.6220   73.6450 C.3    63  LEU63       0.0311
     26  CG        38.7180   61.9440   73.3040 C.3    63  LEU63       0.0022
     27  CD1       40.2260   61.7560   73.2330 C.3    63  LEU63       0.0001
     28  CD2       38.2030   62.5020   71.9920 C.3    63  LEU63       0.0001
     29  N         35.8450   58.9590   75.8430 N.am   64  LYS64      -0.1977
     30  CA        35.1410   57.7270   76.1400 C.3    64  LYS64       0.1596
     31  C         33.6570   58.0280   76.2820 C.2    64  LYS64       0.2287
     32  O         33.2470   58.7670   77.1850 O.2    64  LYS64      -0.2864
     33  CB        35.6860   57.1120   77.4250 C.3    64  LYS64       0.0298
     34  CG        37.1390   56.6960   77.2880 C.3    64  LYS64       0.0038
     35  CD        37.6140   55.8560   78.4430 C.3    64  LYS64       0.0206
     36  CE        39.1180   55.8510   78.5210 C.3    64  LYS64       0.1093
     37  NZ        39.7660   55.7780   77.1820 N.3    64  LYS64      -0.1314
     38  N         47.3240   54.4220   80.9120 N.3    86  GLU86      -0.1245
     39  CA        46.5930   54.9340   79.7650 C.3    86  GLU86       0.1567
     40  C         47.5880   55.4340   78.7380 C.2    86  GLU86       0.2260
     41  O         48.0740   56.5460   78.8480 O.2    86  GLU86      -0.2867
     42  CB        45.6430   56.0700   80.1740 C.3    86  GLU86       0.0388
     43  CG        44.1710   55.6800   80.2310 C.3    86  GLU86       0.1160
     44  CD        43.4970   55.7100   78.8750 C.2    86  GLU86       0.3649
     45  OE1       44.0590   55.1480   77.9110 O.co2  86  GLU86      -0.2457
     46  OE2       42.3980   56.2870   78.7670 O.co2  86  GLU86      -0.2457
     47  N         48.4480   57.1320   75.3990 N.3    88  GLY88      -0.1210
     48  CA        47.7150   58.2410   74.8050 C.3    88  GLY88       0.1956
     49  C         46.8350   58.9690   75.8070 C.2    88  GLY88       0.2612
     50  O         45.9030   58.3810   76.3590 O.2    88  GLY88      -0.2717
     51  N         47.1170   60.2570   76.0210 N.am   89  VAL89      -0.1965
     52  CA        46.4740   61.0560   77.0790 C.3    89  VAL89       0.1727
     53  C         45.5020   62.1260   76.5380 C.2    89  VAL89       0.2616
     54  O         44.4000   62.3100   77.0840 O.2    89  VAL89      -0.2715
     55  CB        47.5560   61.7470   77.9660 C.3    89  VAL89       0.0290
     56  CG1       46.9460   62.8180   78.8660 C.3    89  VAL89       0.0023
     57  CG2       48.3070   60.7100   78.8010 C.3    89  VAL89       0.0023
     58  N         45.9290   62.8330   75.4910 N.am   90  TYR90      -0.1960
     59  CA        45.1980   63.9830   74.9420 C.3    90  TYR90       0.1771
     60  C         44.9940   65.0830   75.9970 C.2    90  TYR90       0.2619
     61  O         45.9590   65.6840   76.4510 O.2    90  TYR90      -0.2715
     62  CB        43.8810   63.5540   74.2600 C.3    90  TYR90       0.0574
     63  CG        43.2640   64.6370   73.3820 C.ar   90  TYR90      -0.0198
     64  CD1       44.0250   65.2890   72.4090 C.ar   90  TYR90      -0.0009
     65  CD2       41.9320   65.0130   73.5250 C.ar   90  TYR90      -0.0009
     66  CE1       43.4840   66.2770   71.6110 C.ar   90  TYR90       0.0417
     67  CE2       41.3770   66.0030   72.7230 C.ar   90  TYR90       0.0417
     68  CZ        42.1680   66.6340   71.7670 C.ar   90  TYR90       0.1957
     69  OH        41.6570   67.6230   70.9580 O.3    90  TYR90      -0.2866
     70  N         43.7550   65.3340   76.3960 N.am   91  ASN91      -0.1972
     71  CA        43.4390   66.4140   77.3180 C.3    91  ASN91       0.1688
     72  C         43.3400   65.9470   78.7700 C.2    91  ASN91       0.2292
     73  O         43.1220   66.7580   79.6630 O.2    91  ASN91      -0.2864
     74  CB        42.1280   67.0550   76.9160 C.3    91  ASN91       0.1181
     75  CG        40.9520   66.2320   77.3430 C.2    91  ASN91       0.2629
     76  OD1       40.8390   65.0510   76.9720 O.2    91  ASN91      -0.2716
     77  ND2       40.0800   66.8220   78.1590 N.am   91  ASN91      -0.0877
     78  N         40.0140   61.4210   80.5970 N.3    94  SER94      -0.1202
     79  CA        39.9240   60.0440   81.0580 C.3    94  SER94       0.2020
     80  C         40.7910   59.7860   82.2910 C.2    94  SER94       0.2618
     81  O         40.4020   59.0240   83.1670 O.2    94  SER94      -0.2717
     82  CB        40.3170   59.0830   79.9410 C.3    94  SER94       0.2103
     83  OG        41.6000   59.4040   79.4480 O.3    94  SER94      -0.2182
     84  N         41.9710   60.3970   82.3490 N.am   95  LEU95      -0.1979
     85  CA        42.8490   60.2410   83.5100 C.3    95  LEU95       0.1596
     86  C         42.1290   60.7480   84.7630 C.2    95  LEU95       0.2287
     87  O         42.0410   60.0420   85.7570 O.2    95  LEU95      -0.2864
     88  CB        44.1630   61.0010   83.3150 C.3    95  LEU95       0.0297
     89  CG        45.4160   60.3570   82.6750 C.3    95  LEU95       0.0022
     90  CD1       45.1580   59.0780   81.8890 C.3    95  LEU95       0.0001
     91  CD2       46.1300   61.3930   81.7910 C.3    95  LEU95       0.0001
     92  N         52.2530   59.6530   76.8630 N.3   115  ASP115     -0.1225
     93  CA        51.9970   60.3430   75.5920 C.3   115  ASP115      0.1805
     94  C         53.2240   61.1040   75.0500 C.2   115  ASP115      0.2597
     95  O         54.0020   61.6720   75.8090 O.2   115  ASP115     -0.2718
     96  CB        50.8190   61.3250   75.7350 C.3   115  ASP115      0.1424
     97  CG        50.2140   61.7220   74.3920 C.2   115  ASP115      0.3668
     98  OD1       50.6750   61.1920   73.3590 O.co2 115  ASP115     -0.2456
     99  OD2       49.2820   62.5570   74.2710 O.co2 115  ASP115     -0.2456
    100  N         53.3610   61.1280   73.7260 N.am  116  ARG116     -0.1979
    101  CA        54.4160   61.8810   73.0390 C.3   116  ARG116      0.1597
    102  C         54.3630   63.3790   73.3190 C.2   116  ARG116      0.2287
    103  O         55.3870   64.0570   73.2840 O.2   116  ARG116     -0.2864
    104  CB        54.3160   61.6670   71.5140 C.3   116  ARG116      0.0334
    105  CG        53.0050   62.1710   70.8660 C.3   116  ARG116      0.0492
    106  CD        53.0930   62.4420   69.3590 C.3   116  ARG116      0.2205
    107  NE        51.7980   62.2570   68.6860 N.pl3 116  ARG116     -0.0865
    108  CZ        51.6360   62.0900   67.3670 C.cat 116  ARG116      0.5346
    109  NH1       52.6810   62.0910   66.5410 N.pl3 116  ARG116      0.1354
    110  NH2       50.4150   61.9190   66.8670 N.pl3 116  ARG116      0.1354
    111  N         48.5620   69.2840   75.4180 N.3   120  ARG120     -0.1245
    112  CA        47.1020   69.3770   75.3040 C.3   120  ARG120      0.1563
    113  C         46.3530   69.0600   76.6140 C.2   120  ARG120      0.2260
    114  O         45.1540   69.3510   76.7400 O.2   120  ARG120     -0.2867
    115  CB        46.5890   68.4590   74.1810 C.3   120  ARG120      0.0307
    116  CG        46.7840   69.0100   72.7660 C.3   120  ARG120      0.0489
    117  CD        47.8630   68.3080   71.9500 C.3   120  ARG120      0.2205
    118  NE        47.3070   67.4280   70.9060 N.pl3 120  ARG120     -0.0865
    119  CZ        47.4180   66.0950   70.8730 C.cat 120  ARG120      0.5346
    120  NH1       48.0580   65.4280   71.8330 N.pl3 120  ARG120      0.1354
    121  NH2       46.8790   65.4220   69.8670 N.pl3 120  ARG120      0.1354
    122  N         57.3940   58.6490   73.2460 N.3   137  ASP137     -0.1225
    123  CA        56.7060   58.0760   72.0910 C.3   137  ASP137      0.1805
    124  C         56.3760   56.6100   72.3550 C.2   137  ASP137      0.2598
    125  O         57.1690   55.8870   72.9520 O.2   137  ASP137     -0.2718
    126  CB        57.5680   58.2060   70.8250 C.3   137  ASP137      0.1424
    127  CG        56.7720   57.9760   69.5360 C.2   137  ASP137      0.3668
    128  OD1       57.3600   57.4580   68.5590 O.co2 137  ASP137     -0.2456
    129  OD2       55.5670   58.2820   69.4010 O.co2 137  ASP137     -0.2456
    130  N         55.2060   56.1840   71.8880 N.am  138  CYS138     -0.1956
    131  CA        54.7330   54.8100   72.0540 C.3   138  CYS138      0.1843
    132  C         55.4250   53.8560   71.0930 C.2   138  CYS138      0.2626
    133  O         55.7530   52.7290   71.4650 O.2   138  CYS138     -0.2714
    134  CB        53.2300   54.7420   71.8240 C.3   138  CYS138      0.0997
    135  SG        52.2990   55.7710   72.9680 S.3   138  CYS138     -0.0797
    136  N         55.6350   54.3030   69.8550 N.am  139  SER139     -0.1950
    137  CA        56.3870   53.5180   68.8700 C.3   139  SER139      0.1924
    138  C         57.6800   52.9710   69.4830 C.2   139  SER139      0.2314
    139  O         58.0590   51.8280   69.2190 O.2   139  SER139     -0.2863
    140  CB        56.7020   54.3530   67.6180 C.3   139  SER139      0.2116
    141  OG        55.7420   54.1320   66.5960 O.3   139  SER139     -0.2180
    142  N         45.3400   53.6420   73.8650 N.3   159  ASP159     -0.1225
    143  CA        44.5700   54.7010   73.2160 C.3   159  ASP159      0.1805
    144  C         45.4230   55.5370   72.2690 C.2   159  ASP159      0.2598
    145  O         45.0370   56.6380   71.9130 O.2   159  ASP159     -0.2718
    146  CB        43.9220   55.5960   74.2640 C.3   159  ASP159      0.1424
    147  CG        42.5020   55.2090   74.5470 C.2   159  ASP159      0.3668
    148  OD1       41.6740   55.2380   73.6030 O.co2 159  ASP159     -0.2456
    149  OD2       42.1340   54.8650   75.6930 O.co2 159  ASP159     -0.2456
    150  N         46.5690   54.9960   71.8620 N.am  160  ALA160     -0.1966
    151  CA        47.4780   55.6390   70.9120 C.3   160  ALA160      0.1728
    152  C         47.5950   54.8510   69.5950 C.2   160  ALA160      0.2616
    153  O         47.8700   55.4270   68.5370 O.2   160  ALA160     -0.2715
    154  CB        48.8570   55.8020   71.5490 C.3   160  ALA160      0.0334
    155  N         47.4280   53.5320   69.6720 N.am  161  HIS161     -0.1959
    156  CA        47.2540   52.6840   68.4900 C.3   161  HIS161      0.1787
    157  C         48.4650   52.6300   67.5640 C.2   161  HIS161      0.2620
    158  O         48.3150   52.4000   66.3630 O.2   161  HIS161     -0.2715
    159  CB        46.0200   53.1400   67.6990 C.3   161  HIS161      0.0785
    160  CG        44.8570   53.5070   68.5640 C.ar  161  HIS161      0.0821
    161  ND1       44.3370   52.6530   69.5130 N.ar  161  HIS161     -0.2267
    162  CD2       44.1290   54.6470   68.6400 C.ar  161  HIS161      0.1154
    163  CE1       43.3300   53.2490   70.1290 C.ar  161  HIS161      0.1986
    164  NE2       43.1810   54.4590   69.6160 N.ar  161  HIS161     -0.2212
    165  N         49.6540   52.8430   68.1230 N.am  162  ALA162     -0.1977
    166  CA        50.8960   52.7250   67.3730 C.3   162  ALA162      0.1597
    167  C         51.6940   51.5600   67.9290 C.2   162  ALA162      0.2287
    168  O         51.7630   51.3740   69.1500 O.2   162  ALA162     -0.2864
    169  CB        51.6970   53.9980   67.4750 C.3   162  ALA162      0.0319
    170  N         39.0680   51.0080   70.0910 N.3   186  ASP186     -0.1239
    171  CA        38.7610   51.5100   68.7440 C.3   186  ASP186      0.1674
    172  C         39.2430   50.6990   67.5410 C.2   186  ASP186      0.2266
    173  O         38.4970   50.5480   66.5750 O.2   186  ASP186     -0.2867
    174  CB        39.2350   52.9540   68.5930 C.3   186  ASP186      0.1410
    175  CG        38.6270   53.8590   69.6190 C.2   186  ASP186      0.3668
    176  OD1       37.3800   53.9830   69.6120 O.co2 186  ASP186     -0.2456
    177  OD2       39.3130   54.4630   70.4800 O.co2 186  ASP186     -0.2456
@<TRIPOS>BOND
     1     1     2    1
     2     2     3    1
     3   158   157    2
     4   109   108    1
     5   173   172    2
     6   141   140    1
     7   110   108    1
     8     5     3   am
     9     5     6    1
    10     3     4    2
    11   108   107    2
    12   166   169    1
    13   166   167    1
    14   166   165    1
    15   172   171    1
    16   157   165   am
    17   157   156    1
    18   140   137    1
    19   159   156    1
    20   159   160    1
    21   167   168    2
    22    10     9    1
    23    10    11    1
    24    10    12    1
    25     6     9    1
    26     6     7    1
    27     7     8    2
    28   156   155    1
    29   153   152    2
    30   128   127   ar
    31   160   162   ar
    32   160   161   ar
    33   174   171    1
    34   174   175    1
    35   162   164   ar
    36   107   106    1
    37   171   170    1
    38   137   138    1
    39   137   136    1
    40   139   138    2
    41   106   105    1
    42   129   127   ar
    43   161   163   ar
    44   127   126    1
    45   152   155   am
    46   152   151    1
    47   176   175   ar
    48   164   163   ar
    49   175   177   ar
    50   136   132   am
    51   121   119    1
    52   126   123    1
    53   105   104    1
    54   119   118    2
    55   119   120    1
    56   118   117    1
    57   151   154    1
    58   151   150    1
    59    69    68    1
    60   132   133    2
    61   132   131    1
    62   104   101    1
    63    66    68   ar
    64    66    64   ar
    65    68    67   ar
    66   134   131    1
    67   134   135    1
    68   150   144   am
    69   130   131    1
    70   130   124   am
    71   145   144    2
    72   117   116    1
    73    28    26    1
    74   123   124    1
    75   123   122    1
    76   144   143    1
    77   124   125    2
    78    64    63   ar
    79    67    65   ar
    80   116   115    1
    81   101   102    1
    82   101   100    1
    83   143   142    1
    84   143   146    1
    85    27    26    1
    86   103   102    2
    87    26    25    1
    88    98    97   ar
    89    63    65   ar
    90    63    62    1
    91   148   147   ar
    92    24    23    2
    93    25    22    1
    94   100    94   am
    95   115   112    1
    96    62    59    1
    97   146   147    1
    98    99    97   ar
    99    97    96    1
   100    22    23    1
   101    22    21    1
   102   147   149   ar
   103    23    29   am
   104    48    47    1
   105    48    49    1
   106    59    58    1
   107    59    60    1
   108    94    93    1
   109    94    95    2
   110   112   111    1
   111   112   113    1
   112    58    53   am
   113    93    96    1
   114    93    92    1
   115    21    15   am
   116    16    15    2
   117    49    51   am
   118    49    50    2
   119    29    30    1
   120    60    70   am
   121    60    61    2
   122    51    52    1
   123    30    31    1
   124    30    33    1
   125    15    14    1
   126    31    32    2
   127    70    71    1
   128    53    52    1
   129    53    54    2
   130   113   114    2
   131    74    71    1
   132    74    75    1
   133    76    75    2
   134    52    55    1
   135    37    36    1
   136    13    14    1
   137    34    33    1
   138    34    35    1
   139    71    72    1
   140    75    77   am
   141    14    17    1
   142    45    44   ar
   143    55    57    1
   144    55    56    1
   145    35    36    1
   146    17    18    1
   147    40    41    2
   148    40    39    1
   149    46    44   ar
   150    72    73    2
   151    44    43    1
   152    83    82    1
   153    39    42    1
   154    39    38    1
   155    82    79    1
   156    18    19    1
   157    42    43    1
   158    19    20    1
   159    78    79    1
   160    79    80    1
   161    91    89    1
   162    90    89    1
   163    80    84   am
   164    80    81    2
   165    84    85    1
   166    89    88    1
   167    88    85    1
   168    85    86    1
   169    86    87    2
