@<TRIPOS>MOLECULE
tmp/2br4E00.pdb
 89 85 0 0 0
SMALL
GASTEIGER

@<TRIPOS>ATOM
      1  N         42.2940   63.8760   63.5210 N.3    15  ARG15      -0.1231
      2  CA        41.6560   62.5650   63.2960 C.3    15  ARG15       0.1694
      3  C         41.2200   61.9120   64.6100 C.2    15  ARG15       0.2593
      4  O         42.0560   61.5810   65.4550 O.2    15  ARG15      -0.2718
      5  CB        42.5980   61.6350   62.5170 C.3    15  ARG15       0.0321
      6  CG        42.1700   61.3360   61.0750 C.3    15  ARG15       0.0489
      7  CD        40.7390   60.8580   60.8990 C.3    15  ARG15       0.2205
      8  NE        40.6540   59.4290   60.6210 N.pl3  15  ARG15      -0.0865
      9  CZ        40.8810   58.4710   61.5110 C.cat  15  ARG15       0.5346
     10  NH1       41.2170   58.7630   62.7560 N.pl3  15  ARG15       0.1354
     11  NH2       40.7770   57.2010   61.1480 N.pl3  15  ARG15       0.1354
     12  N         39.9110   61.7390   64.7790 N.am   16  GLY16      -0.1942
     13  CA        39.3520   61.1550   65.9850 C.3    16  GLY16       0.2014
     14  C         39.4730   61.9940   67.2510 C.2    16  GLY16       0.2638
     15  O         39.0570   61.5410   68.3180 O.2    16  GLY16      -0.2714
     16  N         40.0210   63.2050   67.1470 N.am   17  LEU17      -0.1977
     17  CA        40.2540   64.0560   68.3140 C.3    17  LEU17       0.1596
     18  C         39.3090   65.2520   68.3940 C.2    17  LEU17       0.2287
     19  O         38.6040   65.4030   69.3870 O.2    17  LEU17      -0.2864
     20  CB        41.6950   64.5550   68.3290 C.3    17  LEU17       0.0297
     21  CG        42.7690   63.4690   68.3110 C.3    17  LEU17       0.0022
     22  CD1       44.1790   64.0730   68.4850 C.3    17  LEU17       0.0001
     23  CD2       42.4750   62.4050   69.3840 C.3    17  LEU17       0.0001
     24  N         36.8670   61.4370   75.6680 N.3    63  LEU63      -0.1245
     25  CA        36.7000   60.7250   74.3980 C.3    63  LEU63       0.1561
     26  C         36.1030   59.3330   74.5970 C.2    63  LEU63       0.2260
     27  O         35.8870   58.6070   73.6270 O.2    63  LEU63      -0.2867
     28  CB        38.0260   60.6220   73.6450 C.3    63  LEU63       0.0270
     29  CG        38.7180   61.9440   73.3040 C.3    63  LEU63       0.0019
     30  CD1       40.2260   61.7560   73.2330 C.3    63  LEU63       0.0001
     31  CD2       38.2030   62.5020   71.9920 C.3    63  LEU63       0.0001
     32  N         45.3400   53.6420   73.8650 N.3   159  ASP159     -0.1239
     33  CA        44.5700   54.7010   73.2160 C.3   159  ASP159      0.1674
     34  C         45.4230   55.5370   72.2690 C.2   159  ASP159      0.2266
     35  O         45.0370   56.6380   71.9130 O.2   159  ASP159     -0.2867
     36  CB        43.9220   55.5960   74.2640 C.3   159  ASP159      0.1410
     37  CG        42.5020   55.2090   74.5470 C.2   159  ASP159      0.3668
     38  OD1       41.6740   55.2380   73.6030 O.co2 159  ASP159     -0.2456
     39  OD2       42.1340   54.8650   75.6930 O.co2 159  ASP159     -0.2456
     40  N         47.4280   53.5320   69.6720 N.3   161  HIS161     -0.1241
     41  CA        47.2540   52.6840   68.4900 C.3   161  HIS161      0.1621
     42  C         48.4650   52.6300   67.5640 C.2   161  HIS161      0.2264
     43  O         48.3150   52.4000   66.3630 O.2   161  HIS161     -0.2867
     44  CB        46.0200   53.1400   67.6990 C.3   161  HIS161      0.0745
     45  CG        44.8570   53.5070   68.5640 C.ar  161  HIS161      0.0817
     46  ND1       44.3370   52.6530   69.5130 N.ar  161  HIS161     -0.2268
     47  CD2       44.1290   54.6470   68.6400 C.ar  161  HIS161      0.1154
     48  CE1       43.3300   53.2490   70.1290 C.ar  161  HIS161      0.1986
     49  NE2       43.1810   54.4590   69.6160 N.ar  161  HIS161     -0.2212
     50  N         39.0680   51.0080   70.0910 N.3   186  ASP186     -0.1225
     51  CA        38.7610   51.5100   68.7440 C.3   186  ASP186      0.1805
     52  C         39.2430   50.6990   67.5410 C.2   186  ASP186      0.2597
     53  O         38.4970   50.5480   66.5750 O.2   186  ASP186     -0.2718
     54  CB        39.2350   52.9540   68.5930 C.3   186  ASP186      0.1424
     55  CG        38.6270   53.8590   69.6190 C.2   186  ASP186      0.3668
     56  OD1       37.3800   53.9830   69.6120 O.co2 186  ASP186     -0.2456
     57  OD2       39.3130   54.4630   70.4800 O.co2 186  ASP186     -0.2456
     58  N         40.4660   50.1840   67.6010 N.am  187  MET187     -0.1979
     59  CA        41.1850   49.7420   66.4090 C.3   187  MET187      0.1605
     60  C         40.8620   48.3350   65.9200 C.2   187  MET187      0.2287
     61  O         40.9830   48.0670   64.7270 O.2   187  MET187     -0.2864
     62  CB        42.6900   49.8200   66.6550 C.3   187  MET187      0.0413
     63  CG        43.1890   51.1970   66.9660 C.3   187  MET187      0.0598
     64  SD        43.1520   52.3250   65.5470 S.3   187  MET187     -0.1393
     65  CE        41.6530   53.1330   65.8460 C.3   187  MET187      0.0692
     66  N         38.6400   47.7080   62.7830 N.3   190  TYR190     -0.1241
     67  CA        39.2880   48.2390   61.5830 C.3   190  TYR190      0.1605
     68  C         40.4830   47.4200   61.1250 C.2   190  TYR190      0.2264
     69  O         40.6750   47.2220   59.9340 O.2   190  TYR190     -0.2867
     70  CB        39.7420   49.6780   61.8040 C.3   190  TYR190      0.0534
     71  CG        38.6050   50.6250   62.0410 C.ar  190  TYR190     -0.0201
     72  CD1       38.2340   50.9730   63.3350 C.ar  190  TYR190     -0.0009
     73  CD2       37.8880   51.1650   60.9770 C.ar  190  TYR190     -0.0009
     74  CE1       37.1870   51.8330   63.5690 C.ar  190  TYR190      0.0417
     75  CE2       36.8340   52.0350   61.2040 C.ar  190  TYR190      0.0417
     76  CZ        36.4930   52.3610   62.5050 C.ar  190  TYR190      0.1957
     77  OH        35.4590   53.2200   62.7570 O.3   190  TYR190     -0.2866
     78  N         40.8310   45.4910   57.3470 N.3   194  TYR194     -0.1241
     79  CA        41.8780   45.7760   56.3680 C.3   194  TYR194      0.1605
     80  C         42.8820   44.6330   56.2240 C.2   194  TYR194      0.2264
     81  O         43.3700   44.3580   55.1250 O.2   194  TYR194     -0.2867
     82  CB        42.6150   47.0630   56.7510 C.3   194  TYR194      0.0534
     83  CG        41.7250   48.2840   56.8210 C.ar  194  TYR194     -0.0201
     84  CD1       41.7710   49.1400   57.9170 C.ar  194  TYR194     -0.0009
     85  CD2       40.8410   48.5910   55.7880 C.ar  194  TYR194     -0.0009
     86  CE1       40.9540   50.2600   57.9930 C.ar  194  TYR194      0.0417
     87  CE2       40.0200   49.7130   55.8560 C.ar  194  TYR194      0.0417
     88  CZ        40.0860   50.5420   56.9600 C.ar  194  TYR194      0.1957
     89  OH        39.2860   51.6550   57.0360 O.3   194  TYR194     -0.2866
@<TRIPOS>BOND
     1    81    80    2
     2    85    87   ar
     3    85    83   ar
     4    87    88   ar
     5    80    79    1
     6    79    82    1
     7    79    78    1
     8    82    83    1
     9    83    84   ar
    10    88    89    1
    11    88    86   ar
    12    84    86   ar
    13    69    68    2
    14     8     7    1
    15     8     9    2
    16     7     6    1
    17    73    75   ar
    18    73    71   ar
    19     6     5    1
    20    68    67    1
    21    11     9    1
    22    75    76   ar
    23     9    10    1
    24    67    70    1
    25    67    66    1
    26    70    71    1
    27    71    72   ar
    28    76    77    1
    29    76    74   ar
    30     5     2    1
    31     2     1    1
    32     2     3    1
    33    72    74   ar
    34     3    12   am
    35     3     4    2
    36    61    60    2
    37    12    13    1
    38    64    65    1
    39    64    63    1
    40    60    59    1
    41    13    14    1
    42    43    42    2
    43    59    62    1
    44    59    58    1
    45    53    52    2
    46    62    63    1
    47    16    14   am
    48    16    17    1
    49    14    15    2
    50    52    58   am
    51    52    51    1
    52    42    41    1
    53    44    41    1
    54    44    45    1
    55    21    20    1
    56    21    22    1
    57    21    23    1
    58    17    20    1
    59    17    18    1
    60    18    19    2
    61    41    40    1
    62    45    47   ar
    63    45    46   ar
    64    54    51    1
    65    54    55    1
    66    47    49   ar
    67    51    50    1
    68    46    48   ar
    69    56    55   ar
    70    49    48   ar
    71    55    57   ar
    72    35    34    2
    73    31    29    1
    74    34    33    1
    75    33    32    1
    76    33    36    1
    77    30    29    1
    78    29    28    1
    79    38    37   ar
    80    27    26    2
    81    28    25    1
    82    36    37    1
    83    25    26    1
    84    25    24    1
    85    37    39   ar
