@<TRIPOS>MOLECULE
tmp/2br6A00.pdb
 104 99 0 0 0
SMALL
GASTEIGER

@<TRIPOS>ATOM
      1  N          8.8900   16.6690    6.5420 N.3    16  CYS16      -0.1235
      2  CA         8.0900   16.6160    7.7490 C.3    16  CYS16       0.1677
      3  C          6.6710   17.0300    7.4440 C.2    16  CYS16       0.2270
      4  O          6.4420   18.0690    6.8320 O.2    16  CYS16      -0.2867
      5  CB         8.6810   17.5260    8.8260 C.3    16  CYS16       0.0956
      6  SG         8.0020   17.2130   10.4700 S.3    16  CYS16      -0.0801
      7  N          2.9890   18.3230    8.6410 N.3    18  LEU18      -0.1245
      8  CA         2.3990   19.1950    9.6560 C.3    18  LEU18       0.1561
      9  C          1.0050   19.5800    9.2070 C.2    18  LEU18       0.2260
     10  O          0.7070   19.5460    8.0060 O.2    18  LEU18      -0.2867
     11  CB         3.2100   20.4870    9.7950 C.3    18  LEU18       0.0270
     12  CG         4.6050   20.4890   10.4200 C.3    18  LEU18       0.0019
     13  CD1        5.1260   21.9050   10.5650 C.3    18  LEU18       0.0001
     14  CD2        4.5500   19.8210   11.7740 C.3    18  LEU18       0.0001
     15  N          6.3200   19.2980    4.2990 N.3    35  LEU35      -0.1245
     16  CA         7.3340   20.3550    4.1800 C.3    35  LEU35       0.1561
     17  C          8.7640   19.8340    4.0020 C.2    35  LEU35       0.2260
     18  O          9.1340   18.8320    4.6240 O.2    35  LEU35      -0.2867
     19  CB         7.2810   21.2510    5.4250 C.3    35  LEU35       0.0270
     20  CG         5.9190   21.8820    5.7310 C.3    35  LEU35       0.0019
     21  CD1        5.9540   22.5980    7.0640 C.3    35  LEU35       0.0001
     22  CD2        5.4880   22.8310    4.6210 C.3    35  LEU35       0.0001
     23  N          2.7790   16.2830   13.9790 N.3    63  ILE63      -0.1245
     24  CA         4.1190   16.2670   13.3880 C.3    63  ILE63       0.1561
     25  C          4.5680   14.8450   13.0470 C.2    63  ILE63       0.2260
     26  O          4.8240   14.0250   13.9360 O.2    63  ILE63      -0.2867
     27  CB         5.1590   16.9490   14.3090 C.3    63  ILE63       0.0252
     28  CG1        4.6190   18.2660   14.8770 C.3    63  ILE63       0.0019
     29  CG2        6.4560   17.1610   13.5560 C.3    63  ILE63       0.0019
     30  CD1        5.6190   19.0480   15.7330 C.3    63  ILE63       0.0001
     31  N         15.2560   22.7000   17.3630 N.3    96  HIS96      -0.1226
     32  CA        14.0710   21.9010   17.0100 C.3    96  HIS96       0.1752
     33  C         14.5280   20.6250   16.3010 C.2    96  HIS96       0.2596
     34  O         15.5950   20.6010   15.6690 O.2    96  HIS96      -0.2718
     35  CB        13.0820   22.6900   16.1540 C.3    96  HIS96       0.0759
     36  CG        12.2730   23.6800   16.9350 C.ar   96  HIS96       0.0818
     37  ND1       11.4290   24.5870   16.3360 N.ar   96  HIS96      -0.2268
     38  CD2       12.1960   23.9130   18.2640 C.ar   96  HIS96       0.1154
     39  CE1       10.8600   25.3360   17.2640 C.ar   96  HIS96       0.1986
     40  NE2       11.3080   24.9490   18.4450 N.ar   96  HIS96      -0.2212
     41  N         13.7270   19.5680   16.4190 N.am   97  PHE97      -0.1962
     42  CA        14.1780   18.2270   16.0420 C.3    97  PHE97       0.1771
     43  C         14.6060   18.1050   14.5680 C.2    97  PHE97       0.2619
     44  O         15.4510   17.2700   14.2390 O.2    97  PHE97      -0.2715
     45  CB        13.1070   17.1870   16.3950 C.3    97  PHE97       0.0574
     46  CG        12.0130   17.0850   15.3850 C.ar   97  PHE97      -0.0200
     47  CD1       12.0690   16.1230   14.3810 C.ar   97  PHE97      -0.0042
     48  CD2       10.9360   17.9660   15.4140 C.ar   97  PHE97      -0.0042
     49  CE1       11.0630   16.0330   13.4210 C.ar   97  PHE97      -0.0003
     50  CE2        9.9240   17.8860   14.4590 C.ar   97  PHE97      -0.0003
     51  CZ         9.9940   16.9120   13.4590 C.ar   97  PHE97      -0.0000
     52  N         14.0130   18.9220   13.6960 N.am   98  ASP98      -0.1971
     53  CA        14.2940   18.8790   12.2510 C.3    98  ASP98       0.1709
     54  C         15.5110   19.7180   11.8590 C.2    98  ASP98       0.2293
     55  O         15.8580   19.8060   10.6770 O.2    98  ASP98      -0.2864
     56  CB        13.0660   19.2870   11.4080 C.3    98  ASP98       0.1436
     57  CG        12.4090   20.5830   11.8820 C.2    98  ASP98       0.3671
     58  OD1       11.9840   21.3920   11.0160 O.co2  98  ASP98      -0.2456
     59  OD2       12.2490   20.8790   13.0870 O.co2  98  ASP98      -0.2456
     60  N         10.1700   32.2910   16.6100 N.3   159  HIS159     -0.1241
     61  CA         9.8170   30.9320   16.2470 C.3   159  HIS159      0.1621
     62  C         10.2550   29.9460   17.3400 C.2   159  HIS159      0.2264
     63  O          9.4910   29.0630   17.7410 O.2   159  HIS159     -0.2867
     64  CB        10.4660   30.5340   14.9360 C.3   159  HIS159      0.0745
     65  CG        10.2380   29.1030   14.6030 C.ar  159  HIS159      0.0817
     66  ND1        8.9970   28.6180   14.2610 N.ar  159  HIS159     -0.2268
     67  CD2       11.0680   28.0350   14.6410 C.ar  159  HIS159      0.1154
     68  CE1        9.0840   27.3180   14.0460 C.ar  159  HIS159      0.1986
     69  NE2       10.3270   26.9390   14.2790 N.ar  159  HIS159     -0.2212
     70  N         13.7230   29.1610   10.0070 N.3   181  ASP181     -0.1239
     71  CA        12.3300   29.1690   10.5090 C.3   181  ASP181      0.1674
     72  C         11.8300   30.5260   11.0160 C.2   181  ASP181      0.2266
     73  O         10.7630   30.6270   11.6310 O.2   181  ASP181     -0.2867
     74  CB        12.0890   28.0600   11.5420 C.3   181  ASP181      0.1410
     75  CG        12.0630   26.6600   10.9180 C.2   181  ASP181      0.3668
     76  OD1       12.3770   26.5100    9.7220 O.co2 181  ASP181     -0.2456
     77  OD2       11.7110   25.6490   11.5600 O.co2 181  ASP181     -0.2456
     78  N          8.5880   30.4120    7.4370 N.3   184  TYR184     -0.1241
     79  CA         8.4740   29.1280    6.7320 C.3   184  TYR184      0.1605
     80  C          8.3490   29.3870    5.2380 C.2   184  TYR184      0.2264
     81  O          9.0060   28.7310    4.4390 O.2   184  TYR184     -0.2867
     82  CB         7.2450   28.3390    7.1930 C.3   184  TYR184      0.0534
     83  CG         7.3700   27.5760    8.5010 C.ar  184  TYR184     -0.0201
     84  CD1        8.4610   27.7450    9.3600 C.ar  184  TYR184     -0.0009
     85  CD2        6.3540   26.7050    8.8960 C.ar  184  TYR184     -0.0009
     86  CE1        8.5510   27.0340   10.5770 C.ar  184  TYR184      0.0417
     87  CE2        6.4280   26.0050   10.1060 C.ar  184  TYR184      0.0417
     88  CZ         7.5280   26.1710   10.9310 C.ar  184  TYR184      0.1957
     89  OH         7.5540   25.4620   12.1050 O.3   184  TYR184     -0.2866
     90  N          3.4360   29.0800   13.0420 N.3   196  ALA196     -0.1245
     91  CA         3.7290   28.4110   14.3170 C.3   196  ALA196      0.1562
     92  C          5.0130   28.9300   14.9660 C.2   196  ALA196      0.2260
     93  O          6.0510   29.0170   14.3060 O.2   196  ALA196     -0.2867
     94  CB         3.8090   26.8960   14.1150 C.3   196  ALA196      0.0290
     95  N         10.7500   26.4330    5.0390 N.3   225  HIS225     -0.1241
     96  CA         9.9480   25.2440    4.7570 C.3   225  HIS225      0.1621
     97  C          8.9150   25.6310    3.7010 C.2   225  HIS225      0.2264
     98  O          7.7020   25.5870    3.9520 O.2   225  HIS225     -0.2867
     99  CB         9.2390   24.7580    6.0370 C.3   225  HIS225      0.0745
    100  CG        10.1550   24.1940    7.0910 C.ar  225  HIS225      0.0817
    101  ND1       10.9640   23.0950    6.8820 N.ar  225  HIS225     -0.2268
    102  CD2       10.3350   24.5430    8.3910 C.ar  225  HIS225      0.1154
    103  CE1       11.6160   22.8060    7.9950 C.ar  225  HIS225      0.1986
    104  NE2       11.2540   23.6690    8.9260 N.ar  225  HIS225     -0.2212
@<TRIPOS>BOND
     1    97    98    2
     2    97    96    1
     3    17    16    1
     4    17    18    2
     5    16    15    1
     6    16    19    1
     7    81    80    2
     8    22    20    1
     9    96    95    1
    10    96    99    1
    11    80    79    1
    12    19    20    1
    13    20    21    1
    14    99   100    1
    15     1     2    1
    16    79    82    1
    17    79    78    1
    18     4     3    2
    19   101   100   ar
    20   101   103   ar
    21   100   102   ar
    22    82    83    1
    23     3     2    1
    24     2     5    1
    25   103   104   ar
    26    10     9    2
    27   102   104   ar
    28    83    85   ar
    29    83    84   ar
    30     7     8    1
    31     5     6    1
    32    85    87   ar
    33     9     8    1
    34    84    86   ar
    35     8    11    1
    36    76    75   ar
    37    11    12    1
    38    70    71    1
    39    87    88   ar
    40    12    13    1
    41    12    14    1
    42    71    72    1
    43    71    74    1
    44    86    88   ar
    45    55    54    2
    46    75    74    1
    47    75    77   ar
    48    88    89    1
    49    72    73    2
    50    58    57   ar
    51    56    57    1
    52    56    53    1
    53    54    53    1
    54    57    59   ar
    55    53    52    1
    56    90    91    1
    57    25    24    1
    58    25    26    2
    59    24    23    1
    60    24    27    1
    61    49    51   ar
    62    49    47   ar
    63    51    50   ar
    64    29    27    1
    65    52    43   am
    66    68    66   ar
    67    68    69   ar
    68    94    91    1
    69    44    43    2
    70    66    65   ar
    71    69    67   ar
    72    93    92    2
    73    27    28    1
    74    91    92    1
    75    47    46   ar
    76    50    48   ar
    77    43    42    1
    78    65    67   ar
    79    65    64    1
    80    28    30    1
    81    64    61    1
    82    46    48   ar
    83    46    45    1
    84    34    33    2
    85    42    45    1
    86    42    41    1
    87    35    36    1
    88    35    32    1
    89    61    60    1
    90    61    62    1
    91    33    41   am
    92    33    32    1
    93    37    36   ar
    94    37    39   ar
    95    36    38   ar
    96    32    31    1
    97    39    40   ar
    98    62    63    2
    99    38    40   ar
