@<TRIPOS>MOLECULE
tmp/2brcA00.pdb
 141 128 0 0 0
SMALL
GASTEIGER

@<TRIPOS>ATOM
      1  N         16.8240  -11.2870    0.0150 N.3    34  LEU34      -0.1245
      2  CA        17.8910  -10.3920   -0.4560 C.3    34  LEU34       0.1561
      3  C         18.5030  -10.9350   -1.7710 C.2    34  LEU34       0.2260
      4  O         18.9160  -10.1540   -2.6490 O.2    34  LEU34      -0.2867
      5  CB        18.9400  -10.2270    0.6440 C.3    34  LEU34       0.0270
      6  CG        18.4660   -9.6460    1.9900 C.3    34  LEU34       0.0019
      7  CD1       19.7160   -9.3970    2.8450 C.3    34  LEU34       0.0001
      8  CD2       17.6880   -8.3460    1.7880 C.3    34  LEU34       0.0001
      9  N         16.0920   -9.8450   -4.4220 N.3    37  ASN37      -0.1225
     10  CA        16.2650   -8.4590   -4.8100 C.3    37  ASN37       0.1785
     11  C         17.4970   -8.2230   -5.6900 C.2    37  ASN37       0.2597
     12  O         17.4560   -7.4310   -6.6210 O.2    37  ASN37      -0.2718
     13  CB        16.3880   -7.5820   -3.5590 C.3    37  ASN37       0.1169
     14  CG        15.0690   -7.3710   -2.8400 C.2    37  ASN37       0.2627
     15  OD1       15.0330   -6.6130   -1.8660 O.2    37  ASN37      -0.2716
     16  ND2       14.0280   -8.0010   -3.2710 N.am   37  ASN37      -0.0877
     17  N         18.5840   -8.9070   -5.3260 N.am   38  ALA38      -0.1979
     18  CA        19.8150   -8.8760   -6.1250 C.3    38  ALA38       0.1597
     19  C         19.5350   -9.3400   -7.5530 C.2    38  ALA38       0.2287
     20  O         19.9880   -8.6950   -8.5070 O.2    38  ALA38      -0.2864
     21  CB        20.9020   -9.7420   -5.4760 C.3    38  ALA38       0.0319
     22  N         16.7140   -9.3640   -9.1100 N.3    40  ASP40      -0.1225
     23  CA        15.8930   -8.3810   -9.7960 C.3    40  ASP40       0.1805
     24  C         16.7470   -7.2280  -10.3220 C.2    40  ASP40       0.2597
     25  O         16.5530   -6.7150  -11.4100 O.2    40  ASP40      -0.2718
     26  CB        14.8340   -7.8400   -8.8540 C.3    40  ASP40       0.1424
     27  CG        13.7500   -8.8710   -8.5390 C.2    40  ASP40       0.3668
     28  OD1       13.7000   -9.9550   -9.1960 O.co2  40  ASP40      -0.2456
     29  OD2       12.8780   -8.6650   -7.6600 O.co2  40  ASP40      -0.2456
     30  N         17.7190   -6.7610   -9.5130 N.am   41  ALA41      -0.1979
     31  CA        18.5370   -5.6470   -9.9540 C.3    41  ALA41       0.1597
     32  C         19.4270   -6.0290  -11.1160 C.2    41  ALA41       0.2287
     33  O         19.7420   -5.1870  -11.9710 O.2    41  ALA41      -0.2864
     34  CB        19.4320   -5.1560   -8.7480 C.3    41  ALA41       0.0319
     35  N         17.4080   -5.9790  -14.1500 N.3    44  LYS44      -0.1245
     36  CA        17.2300   -4.6150  -14.6510 C.3    44  LYS44       0.1561
     37  C         18.4000   -4.1170  -15.4960 C.2    44  LYS44       0.2260
     38  O         18.2000   -3.5180  -16.5520 O.2    44  LYS44      -0.2867
     39  CB        16.8460   -3.5980  -13.5440 C.3    44  LYS44       0.0271
     40  CG        15.5390   -3.8930  -12.8010 C.3    44  LYS44       0.0035
     41  CD        14.3530   -4.0700  -13.6830 C.3    44  LYS44       0.0206
     42  CE        13.0360   -3.9980  -12.8600 C.3    44  LYS44       0.1093
     43  NZ        12.3690   -5.3350  -12.6920 N.3    44  LYS44      -0.1314
     44  N         25.6580   -7.4980   -5.3710 N.3    79  ASP79      -0.1239
     45  CA        25.3030   -7.8720   -6.7420 C.3    79  ASP79       0.1674
     46  C         25.9090   -6.8230   -7.6590 C.2    79  ASP79       0.2266
     47  O         26.2490   -5.6940   -7.2430 O.2    79  ASP79      -0.2867
     48  CB        23.7750   -7.9540   -6.9310 C.3    79  ASP79       0.1410
     49  CG        23.1090   -6.6500   -6.6880 C.2    79  ASP79       0.3668
     50  OD1       22.4210   -6.4530   -5.6500 O.co2  79  ASP79      -0.2456
     51  OD2       23.1920   -5.7120   -7.4930 O.co2  79  ASP79      -0.2456
     52  N         21.8030   -3.0730  -11.3710 N.3    82  ILE82      -0.1231
     53  CA        21.7100   -1.7150  -11.8710 C.3    82  ILE82       0.1692
     54  C         22.1720   -0.6630  -10.8480 C.2    82  ILE82       0.2593
     55  O         22.5310    0.4500  -11.2110 O.2    82  ILE82      -0.2718
     56  CB        20.2800   -1.4550  -12.3880 C.3    82  ILE82       0.0266
     57  CG1       20.2070   -0.1400  -13.1370 C.3    82  ILE82       0.0019
     58  CG2       19.2940   -1.4630  -11.2600 C.3    82  ILE82       0.0020
     59  CD1       19.1100   -0.2020  -14.2010 C.3    82  ILE82       0.0001
     60  N         22.2200   -1.0320   -9.5620 N.am   83  GLY83      -0.1942
     61  CA        22.6080   -0.0200   -8.6000 C.3    83  GLY83       0.2014
     62  C         21.5030    1.0080   -8.3370 C.2    83  GLY83       0.2638
     63  O         20.4320    1.0310   -8.9860 O.2    83  GLY83      -0.2714
     64  N         21.7940    1.9370   -7.4240 N.am   84  MET84      -0.1976
     65  CA        20.8800    3.0120   -7.0720 C.3    84  MET84       0.1605
     66  C         21.6580    4.3200   -6.9130 C.2    84  MET84       0.2287
     67  O         22.6750    4.3360   -6.2380 O.2    84  MET84      -0.2864
     68  CB        20.1850    2.7070   -5.7280 C.3    84  MET84       0.0413
     69  CG        19.1160    1.6190   -5.8550 C.3    84  MET84       0.0598
     70  SD        18.3760    1.1980   -4.2770 S.3    84  MET84      -0.1393
     71  CE        19.5710    0.0580   -3.6790 C.3    84  MET84       0.0692
     72  N         17.6750    7.5110   -5.7590 N.3    88  GLU88      -0.1245
     73  CA        16.9930    6.2130   -5.7220 C.3    88  GLU88       0.1567
     74  C         17.1210    5.5680   -4.3570 C.2    88  GLU88       0.2260
     75  O         16.2010    4.8990   -3.8740 O.2    88  GLU88      -0.2867
     76  CB        17.5190    5.2910   -6.8060 C.3    88  GLU88       0.0388
     77  CG        17.0550    5.7490   -8.1900 C.3    88  GLU88       0.1160
     78  CD        17.7050    5.0290   -9.3190 C.2    88  GLU88       0.3649
     79  OE1       18.8620    4.6080   -9.2270 O.co2  88  GLU88      -0.2457
     80  OE2       17.0570    4.9510  -10.3800 O.co2  88  GLU88      -0.2457
     81  N         13.7490    4.5720   -2.9280 N.3    92  ASN92      -0.1225
     82  CA        13.4680    3.1350   -2.8930 C.3    92  ASN92       0.1785
     83  C         13.4630    2.5650   -1.4930 C.2    92  ASN92       0.2597
     84  O         12.6880    1.6620   -1.1910 O.2    92  ASN92      -0.2718
     85  CB        14.4750    2.3420   -3.7540 C.3    92  ASN92       0.1169
     86  CG        14.3260    2.6140   -5.2420 C.2    92  ASN92       0.2627
     87  OD1       13.3860    3.2980   -5.6740 O.2    92  ASN92      -0.2716
     88  ND2       15.2940    2.1350   -6.0290 N.am   92  ASN92      -0.0877
     89  N         14.3580    3.0690   -0.6430 N.am   93  LEU93      -0.1980
     90  CA        14.5230    2.4800    0.6800 C.3    93  LEU93       0.1596
     91  C         13.8150    3.1910    1.8230 C.2    93  LEU93       0.2287
     92  O         13.5070    2.5870    2.8660 O.2    93  LEU93      -0.2864
     93  CB        16.0090    2.2800    0.9820 C.3    93  LEU93       0.0297
     94  CG        16.7840    1.5470   -0.1140 C.3    93  LEU93       0.0022
     95  CD1       18.2420    1.4240    0.2930 C.3    93  LEU93       0.0001
     96  CD2       16.2030    0.1300   -0.3410 C.3    93  LEU93       0.0001
     97  N          9.0570    4.3510   -1.0140 N.3    96  ILE96      -0.1245
     98  CA         8.1210    3.6040   -1.8740 C.3    96  ILE96       0.1561
     99  C          7.5570    2.3640   -1.2320 C.2    96  ILE96       0.2260
    100  O          6.5110    1.8570   -1.6810 O.2    96  ILE96      -0.2867
    101  CB         8.7250    3.2620   -3.2690 C.3    96  ILE96       0.0252
    102  CG1        9.8240    2.2000   -3.1580 C.3    96  ILE96       0.0019
    103  CG2        9.2040    4.5130   -4.0090 C.3    96  ILE96       0.0019
    104  CD1       10.3020    1.6610   -4.5350 C.3    96  ILE96       0.0001
    105  N          6.2270   -7.0820   -1.5020 N.3   121  GLY121     -0.1225
    106  CA         7.1890   -6.1980   -2.1510 C.3   121  GLY121      0.1811
    107  C          8.1420   -5.4810   -1.2070 C.2   121  GLY121      0.2280
    108  O          8.8340   -4.4970   -1.5970 O.2   121  GLY121     -0.2866
    109  N         13.0510   -6.5590    1.5390 N.3   124  PHE124     -0.1241
    110  CA        14.3130   -5.9770    1.9380 C.3   124  PHE124      0.1605
    111  C         14.3810   -5.8760    3.4510 C.2   124  PHE124      0.2264
    112  O         15.4150   -6.1950    4.0810 O.2   124  PHE124     -0.2867
    113  CB        14.4410   -4.5510    1.3410 C.3   124  PHE124      0.0534
    114  CG        15.5260   -3.7140    1.9540 C.ar  124  PHE124     -0.0203
    115  CD1       16.8730   -3.9830    1.7320 C.ar  124  PHE124     -0.0042
    116  CD2       15.1830   -2.6350    2.7310 C.ar  124  PHE124     -0.0042
    117  CE1       17.8810   -3.1840    2.2900 C.ar  124  PHE124     -0.0003
    118  CE2       16.1890   -1.7820    3.2710 C.ar  124  PHE124     -0.0003
    119  CZ        17.5540   -2.0780    3.0480 C.ar  124  PHE124     -0.0000
    120  N         23.5830    0.0890    3.0650 N.3   136  VAL136     -0.1245
    121  CA        23.4120   -0.2700    1.6550 C.3   136  VAL136      0.1561
    122  C         24.4140    0.5870    0.8800 C.2   136  VAL136      0.2260
    123  O         24.2970    1.8230    0.8840 O.2   136  VAL136     -0.2867
    124  CB        21.9880    0.0280    1.1750 C.3   136  VAL136      0.0252
    125  CG1       21.8550   -0.3040   -0.3160 C.3   136  VAL136      0.0019
    126  CG2       21.0660   -0.9440    1.9200 C.3   136  VAL136      0.0019
    127  N         25.3150   -3.1290   -5.9290 N.3   171  THR171     -0.1218
    128  CA        24.9360   -2.7760   -4.5650 C.3   171  THR171      0.1862
    129  C         25.5050   -3.8270   -3.6170 C.2   171  THR171      0.2287
    130  O         25.5130   -5.0230   -3.9150 O.2   171  THR171     -0.2866
    131  CB        23.3930   -2.8530   -4.4940 C.3   171  THR171      0.1770
    132  OG1       22.8160   -1.8000   -5.3130 O.3   171  THR171     -0.2211
    133  CG2       22.8780   -2.5660   -3.0820 C.3   171  THR171      0.0375
    134  N         24.7560   -5.0090    0.3560 N.3   173  LEU173     -0.1245
    135  CA        24.0070   -4.9070    1.5850 C.3   173  LEU173      0.1561
    136  C         24.9730   -5.4270    2.6380 C.2   173  LEU173      0.2260
    137  O         25.3320   -6.6090    2.6190 O.2   173  LEU173     -0.2867
    138  CB        22.7550   -5.7910    1.5310 C.3   173  LEU173      0.0270
    139  CG        21.4870   -4.9910    1.1930 C.3   173  LEU173      0.0019
    140  CD1       21.5590   -4.4180   -0.2010 C.3   173  LEU173      0.0001
    141  CD2       20.3210   -5.9710    1.3090 C.3   173  LEU173      0.0001
@<TRIPOS>BOND
     1    38    37    2
     2    37    36    1
     3    36    35    1
     4    36    39    1
     5    59    57    1
     6    41    42    1
     7    41    40    1
     8    39    40    1
     9    57    56    1
    10    42    43    1
    11    56    53    1
    12    56    58    1
    13    33    32    2
    14    53    52    1
    15    53    54    1
    16    25    24    2
    17    55    54    2
    18    32    31    1
    19    54    60   am
    20    80    78   ar
    21    24    23    1
    22    24    30   am
    23    31    30    1
    24    31    34    1
    25    23    22    1
    26    23    26    1
    27    60    61    1
    28    78    79   ar
    29    78    77    1
    30    28    27   ar
    31    63    62    2
    32    26    27    1
    33    61    62    1
    34    27    29   ar
    35    20    19    2
    36    62    64   am
    37    77    76    1
    38    46    47    2
    39    46    45    1
    40    19    18    1
    41    51    49   ar
    42    64    65    1
    43    65    66    1
    44    65    68    1
    45    48    45    1
    46    48    49    1
    47    66    67    2
    48    76    73    1
    49    45    44    1
    50    49    50   ar
    51    12    11    2
    52    18    21    1
    53    18    17    1
    54    88    86   am
    55   127   128    1
    56    69    68    1
    57    69    70    1
    58    72    73    1
    59    73    74    1
    60    11    17   am
    61    11    10    1
    62    87    86    2
    63   132   131    1
    64    86    85    1
    65    10     9    1
    66    10    13    1
    67   128   131    1
    68   128   129    1
    69   104   102    1
    70   131   133    1
    71    74    75    2
    72    70    71    1
    73   103   101    1
    74   130   129    2
    75    85    82    1
    76    13    14    1
    77    16    14   am
    78   101   102    1
    79   101    98    1
    80    81    82    1
    81    82    83    1
    82    14    15    2
    83     4     3    2
    84   106   105    1
    85   106   107    1
    86    98    99    1
    87    98    97    1
    88     3     2    1
    89   100    99    2
    90   108   107    2
    91    83    84    2
    92    83    89   am
    93    89    90    1
    94     2     1    1
    95     2     5    1
    96    96    94    1
    97   125   124    1
    98   140   139    1
    99    94    95    1
   100    94    93    1
   101   134   135    1
   102     5     6    1
   103    90    93    1
   104    90    91    1
   105   122   123    2
   106   122   121    1
   107   124   121    1
   108   124   126    1
   109   139   141    1
   110   139   138    1
   111   113   110    1
   112   113   114    1
   113   138   135    1
   114   109   110    1
   115   135   136    1
   116   121   120    1
   117   115   114   ar
   118   115   117   ar
   119     8     6    1
   120    91    92    2
   121   110   111    1
   122   114   116   ar
   123     6     7    1
   124   117   119   ar
   125   137   136    2
   126   116   118   ar
   127   119   118   ar
   128   111   112    2
