@<TRIPOS>MOLECULE
tmp/2brdA02.pdb
 96 92 0 0 0
SMALL
GASTEIGER

@<TRIPOS>ATOM
      1  N         25.9900   -3.1210  -13.4690 N.3     2  PRO2       -0.2116
      2  CA        26.8130   -3.3200  -12.2760 C.3     2  PRO2        0.1372
      3  C         26.1070   -3.5870  -10.9710 C.2     2  PRO2        0.2244
      4  O         26.4940   -4.4880  -10.1860 O.2     2  PRO2       -0.2868
      5  CB        27.6940   -2.0630  -12.1960 C.3     2  PRO2        0.0268
      6  CG        27.7830   -1.6040  -13.6290 C.3     2  PRO2        0.0207
      7  CD        26.3880   -1.8870  -14.1800 C.3     2  PRO2        0.0892
      8  N         26.7730   -5.0310   -5.8840 N.3     6  TRP6       -0.1241
      9  CA        26.4590   -4.2300   -4.7000 C.3     6  TRP6        0.1605
     10  C         25.2530   -4.8110   -3.9490 C.2     6  TRP6        0.2264
     11  O         25.2950   -5.0150   -2.7250 O.2     6  TRP6       -0.2867
     12  CB        26.2000   -2.7690   -5.0300 C.3     6  TRP6        0.0550
     13  CG        26.9470   -2.0710   -6.1000 C.ar    6  TRP6        0.0003
     14  CD1       26.4360   -1.5890   -7.2800 C.ar    6  TRP6        0.0946
     15  CD2       28.3450   -1.7360   -6.1200 C.ar    6  TRP6        0.0152
     16  NE1       27.4220   -0.9900   -8.0270 N.ar    6  TRP6       -0.2442
     17  CE2       28.6010   -1.0660   -7.3380 C.ar    6  TRP6        0.0810
     18  CE3       29.3860   -1.9520   -5.2240 C.ar    6  TRP6        0.0012
     19  CZ2       29.8660   -0.6090   -7.6780 C.ar    6  TRP6        0.0191
     20  CZ3       30.6480   -1.5030   -5.5590 C.ar    6  TRP6        0.0001
     21  CH2       30.8820   -0.8440   -6.7620 C.ar    6  TRP6        0.0015
     22  N         25.8850   -8.3340   -2.5800 N.3     9  LEU9       -0.1245
     23  CA        26.7380   -8.0940   -1.4100 C.3     9  LEU9        0.1561
     24  C         25.8610   -7.7200   -0.2060 C.2     9  LEU9        0.2260
     25  O         26.0570   -8.2050    0.9160 O.2     9  LEU9       -0.2867
     26  CB        27.7280   -6.9790   -1.7660 C.3     9  LEU9        0.0270
     27  CG        28.9970   -6.8950   -0.9340 C.3     9  LEU9        0.0019
     28  CD1       30.2070   -7.2940   -1.7690 C.3     9  LEU9        0.0001
     29  CD2       29.1330   -5.4700   -0.4100 C.3     9  LEU9        0.0001
     30  N         27.0230    8.4600  -11.9220 N.3   194  PRO194     -0.2116
     31  CA        26.5990    7.5370  -12.9780 C.3   194  PRO194      0.1372
     32  C         25.3270    6.7870  -12.6030 C.2   194  PRO194      0.2244
     33  O         24.2030    7.2500  -12.8660 O.2   194  PRO194     -0.2868
     34  CB        27.7990    6.6180  -13.1910 C.3   194  PRO194      0.0268
     35  CG        28.9890    7.3920  -12.6970 C.3   194  PRO194      0.0207
     36  CD        28.4540    8.3120  -11.6100 C.3   194  PRO194      0.0892
     37  N         25.9490    3.1560  -10.6740 N.3   196  ASN196     -0.1225
     38  CA        26.6330    2.2330   -9.7580 C.3   196  ASN196      0.1785
     39  C         26.6360    2.8280   -8.3470 C.2   196  ASN196      0.2597
     40  O         26.0880    2.3210   -7.3560 O.2   196  ASN196     -0.2718
     41  CB        28.0450    1.9540  -10.2800 C.3   196  ASN196      0.1169
     42  CG        28.2280    2.2450  -11.7580 C.2   196  ASN196      0.2627
     43  OD1       28.0510    1.3740  -12.6200 O.2   196  ASN196     -0.2716
     44  ND2       28.5780    3.4940  -12.0730 N.am  196  ASN196     -0.0877
     45  N         27.2780    3.9810   -8.2970 N.am  197  ILE197     -0.1980
     46  CA        27.4730    4.8450   -7.1440 C.3   197  ILE197      0.1595
     47  C         26.2250    4.9210   -6.2740 C.2   197  ILE197      0.2287
     48  O         26.3270    4.7050   -5.0550 O.2   197  ILE197     -0.2864
     49  CB        27.9230    6.2730   -7.6370 C.3   197  ILE197      0.0276
     50  CG1       29.0870    6.1510   -8.6480 C.3   197  ILE197      0.0022
     51  CG2       28.2590    7.2330   -6.4690 C.3   197  ILE197      0.0022
     52  CD1       30.3650    5.4390   -8.1390 C.3   197  ILE197      0.0001
     53  N         25.8790    1.6360   -4.5320 N.3   200  LEU200     -0.1231
     54  CA        26.9930    1.4440   -3.5930 C.3   200  LEU200      0.1693
     55  C         26.8750    2.2960   -2.3310 C.2   200  LEU200      0.2591
     56  O         26.9290    1.7650   -1.2100 O.2   200  LEU200     -0.2718
     57  CB        28.3210    1.6600   -4.3420 C.3   200  LEU200      0.0284
     58  CG        29.5600    1.7070   -3.4500 C.3   200  LEU200      0.0019
     59  CD1       29.7610    0.3820   -2.7220 C.3   200  LEU200      0.0001
     60  CD2       30.7750    2.0340   -4.3120 C.3   200  LEU200      0.0001
     61  N         26.7350    3.5900   -2.5070 N.am  201  LEU201     -0.1980
     62  CA        26.6110    4.5860   -1.4410 C.3   201  LEU201      0.1596
     63  C         25.4160    4.3070   -0.5340 C.2   201  LEU201      0.2287
     64  O         25.5270    4.1560    0.6990 O.2   201  LEU201     -0.2864
     65  CB        26.5650    5.9610   -2.1240 C.3   201  LEU201      0.0297
     66  CG        27.8940    6.6250   -2.4450 C.3   201  LEU201      0.0022
     67  CD1       28.7460    5.7970   -3.3980 C.3   201  LEU201      0.0001
     68  CD2       27.5950    7.9930   -3.0600 C.3   201  LEU201      0.0001
     69  N         23.6770    1.5970   -0.3380 N.3   203  MET203     -0.1230
     70  CA        23.8500    0.2970    0.3330 C.3   203  MET203      0.1702
     71  C         24.7840    0.4680    1.5350 C.2   203  MET203      0.2592
     72  O         24.4700   -0.0470    2.6250 O.2   203  MET203     -0.2718
     73  CB        24.3180   -0.7950   -0.6110 C.3   203  MET203      0.0401
     74  CG        24.5570   -2.1110    0.0850 C.3   203  MET203      0.0596
     75  SD        26.3160   -2.1650    0.5820 S.3   203  MET203     -0.1393
     76  CE        26.2660   -3.4790    1.8080 C.3   203  MET203      0.0692
     77  N         25.8820    1.1790    1.3350 N.am  204  VAL204     -0.1980
     78  CA        26.8830    1.4530    2.3790 C.3   204  VAL204      0.1595
     79  C         26.1210    1.9350    3.6250 C.2   204  VAL204      0.2287
     80  O         26.1970    1.3350    4.7090 O.2   204  VAL204     -0.2864
     81  CB        27.9770    2.4400    1.9370 C.3   204  VAL204      0.0276
     82  CG1       28.7750    3.0210    3.1090 C.3   204  VAL204      0.0022
     83  CG2       28.9720    1.8700    0.9370 C.3   204  VAL204      0.0022
     84  N         23.3370   -0.8630    5.1460 N.3   207  VAL207     -0.1231
     85  CA        24.0270   -1.8890    5.9460 C.3   207  VAL207      0.1692
     86  C         24.6890   -1.3130    7.1920 C.2   207  VAL207      0.2592
     87  O         24.5610   -1.9420    8.2650 O.2   207  VAL207     -0.2718
     88  CB        24.9220   -2.7660    5.0470 C.3   207  VAL207      0.0266
     89  CG1       26.4060   -2.4480    5.1100 C.3   207  VAL207      0.0020
     90  CG2       24.6620   -4.2480    5.3050 C.3   207  VAL207      0.0020
     91  N         25.3510   -0.1780    7.0490 N.am  208  SER208     -0.1952
     92  CA        26.0230    0.4820    8.1760 C.3   208  SER208      0.1924
     93  C         25.0390    0.8800    9.2770 C.2   208  SER208      0.2314
     94  O         25.2980    0.6390   10.4680 O.2   208  SER208     -0.2863
     95  CB        26.8240    1.7010    7.7380 C.3   208  SER208      0.2116
     96  OG        27.9540    1.3360    6.9660 O.3   208  SER208     -0.2180
@<TRIPOS>BOND
     1     7     6    1
     2     7     1    1
     3     6     5    1
     4     1     2    1
     5    34    31    1
     6    34    35    1
     7    31    32    1
     8    31    30    1
     9    33    32    2
    10    35    36    1
    11    43    42    2
    12     2     5    1
    13     2     3    1
    14    44    42   am
    15    30    36    1
    16    42    41    1
    17     3     4    2
    18    37    38    1
    19    41    38    1
    20    38    39    1
    21    50    52    1
    22    50    49    1
    23    39    45   am
    24    39    40    2
    25    45    46    1
    26    16    17   ar
    27    16    14   ar
    28    19    17   ar
    29    19    21   ar
    30    49    46    1
    31    49    51    1
    32    17    15   ar
    33    14    13   ar
    34    46    47    1
    35    21    20   ar
    36    47    48    2
    37    15    13   ar
    38    15    18   ar
    39    13    12    1
    40     8     9    1
    41    20    18   ar
    42    12     9    1
    43     9    10    1
    44    53    54    1
    45    57    54    1
    46    57    58    1
    47    60    58    1
    48    10    11    2
    49    54    55    1
    50    58    59    1
    51    67    66    1
    52    68    66    1
    53    22    23    1
    54    61    55   am
    55    61    62    1
    56    66    65    1
    57    55    56    2
    58    65    62    1
    59    28    27    1
    60    26    23    1
    61    26    27    1
    62    62    63    1
    63    23    24    1
    64    27    29    1
    65    73    74    1
    66    73    70    1
    67    63    64    2
    68    69    70    1
    69    24    25    2
    70    74    75    1
    71    70    71    1
    72    75    76    1
    73    83    81    1
    74    77    71   am
    75    77    78    1
    76    71    72    2
    77    81    78    1
    78    81    82    1
    79    78    79    1
    80    79    80    2
    81    88    89    1
    82    88    90    1
    83    88    85    1
    84    84    85    1
    85    85    86    1
    86    96    95    1
    87    91    86   am
    88    91    92    1
    89    86    87    2
    90    95    92    1
    91    92    93    1
    92    93    94    2
