@<TRIPOS>MOLECULE
tmp/2brdA06.pdb
 92 84 0 0 0
SMALL
GASTEIGER

@<TRIPOS>ATOM
      1  N         25.6040    5.8720   26.9080 N.3   163  SER163     -0.1217
      2  CA        26.7180    5.7660   25.9550 C.3   163  SER163      0.1889
      3  C         26.2320    5.1760   24.6320 C.2   163  SER163      0.2288
      4  O         26.5160    5.7270   23.5490 O.2   163  SER163     -0.2866
      5  CB        27.8720    4.9630   26.5300 C.3   163  SER163      0.2089
      6  OG        28.9900    4.9520   25.6600 O.3   163  SER163     -0.2183
      7  N         24.3640    7.6500   22.9070 N.3   166  LYS166     -0.1231
      8  CA        25.3280    8.6470   22.4450 C.3   166  LYS166      0.1693
      9  C         25.9470    8.2800   21.0970 C.2   166  LYS166      0.2591
     10  O         26.0130    9.1500   20.2080 O.2   166  LYS166     -0.2718
     11  CB        26.4640    8.8950   23.4420 C.3   166  LYS166      0.0285
     12  CG        27.3040   10.1200   23.0620 C.3   166  LYS166      0.0035
     13  CD        28.7940    9.9060   23.2700 C.3   166  LYS166      0.0206
     14  CE        29.6250   11.0080   22.6410 C.3   166  LYS166      0.1093
     15  NZ        31.0090   10.5340   22.3850 N.3   166  LYS166     -0.1314
     16  N         26.3970    7.0410   20.9640 N.am  167  VAL167     -0.1980
     17  CA        27.0110    6.5810   19.7000 C.3   167  VAL167      0.1595
     18  C         25.9360    6.4220   18.6240 C.2   167  VAL167      0.2287
     19  O         26.1210    6.7630   17.4410 O.2   167  VAL167     -0.2864
     20  CB        27.8910    5.3450   19.9480 C.3   167  VAL167      0.0276
     21  CG1       27.1140    4.0790   20.2770 C.3   167  VAL167      0.0022
     22  CG2       28.8460    5.1110   18.7850 C.3   167  VAL167      0.0022
     23  N         24.8440    9.7110   16.9460 N.3   170  ASN170     -0.1225
     24  CA        25.9040   10.1820   16.0360 C.3   170  ASN170      0.1785
     25  C         25.7680    9.4140   14.7170 C.2   170  ASN170      0.2597
     26  O         25.6170   10.0260   13.6440 O.2   170  ASN170     -0.2718
     27  CB        27.2700   10.0890   16.6950 C.3   170  ASN170      0.1169
     28  CG        27.4070   10.8790   17.9820 C.2   170  ASN170      0.2627
     29  OD1       26.6460   11.8170   18.2650 O.2   170  ASN170     -0.2716
     30  ND2       28.4000   10.5020   18.7910 N.am  170  ASN170     -0.0877
     31  N         25.7950    8.0920   14.8520 N.am  171  VAL171     -0.1980
     32  CA        25.6590    7.1930   13.6860 C.3   171  VAL171      0.1595
     33  C         24.3910    7.5860   12.9180 C.2   171  VAL171      0.2287
     34  O         24.4420    7.9020   11.7170 O.2   171  VAL171     -0.2864
     35  CB        25.7000    5.7190   14.1220 C.3   171  VAL171      0.0276
     36  CG1       25.4100    4.7420   12.9830 C.3   171  VAL171      0.0022
     37  CG2       27.0120    5.3440   14.7960 C.3   171  VAL171      0.0022
     38  N         24.5420   11.0980   11.1770 N.3   174  VAL174     -0.1231
     39  CA        25.4790   10.9360   10.0550 C.3   174  VAL174      0.1692
     40  C         24.8420   10.2580    8.8460 C.2   174  VAL174      0.2591
     41  O         24.6160   10.8600    7.7750 O.2   174  VAL174     -0.2718
     42  CB        26.7290   10.2060   10.5970 C.3   174  VAL174      0.0266
     43  CG1       27.5890    9.5530    9.5250 C.3   174  VAL174      0.0020
     44  CG2       27.5660   11.1430   11.4590 C.3   174  VAL174      0.0020
     45  N         24.5430    8.9860    9.0390 N.am  175  LEU175     -0.1980
     46  CA        23.9360    8.1100    8.0310 C.3   175  LEU175      0.1596
     47  C         22.7230    8.7590    7.3770 C.2   175  LEU175      0.2287
     48  O         22.5920    8.8570    6.1410 O.2   175  LEU175     -0.2864
     49  CB        23.6420    6.7730    8.7230 C.3   175  LEU175      0.0297
     50  CG        24.7230    5.7220    8.8580 C.3   175  LEU175      0.0022
     51  CD1       25.0270    5.0850    7.5040 C.3   175  LEU175      0.0001
     52  CD2       26.0000    6.3280    9.4430 C.3   175  LEU175      0.0001
     53  N         25.8820    1.1790    1.3350 N.3   204  VAL204     -0.1231
     54  CA        26.8830    1.4530    2.3790 C.3   204  VAL204      0.1692
     55  C         26.1210    1.9350    3.6250 C.2   204  VAL204      0.2591
     56  O         26.1970    1.3350    4.7090 O.2   204  VAL204     -0.2718
     57  CB        27.9770    2.4400    1.9370 C.3   204  VAL204      0.0266
     58  CG1       28.7750    3.0210    3.1090 C.3   204  VAL204      0.0020
     59  CG2       28.9720    1.8700    0.9370 C.3   204  VAL204      0.0020
     60  N         25.3920    3.0200    3.3880 N.am  205  LEU205     -0.1980
     61  CA        24.5750    3.6290    4.4480 C.3   205  LEU205      0.1596
     62  C         23.6220    2.5960    5.0450 C.2   205  LEU205      0.2287
     63  O         23.6180    2.4090    6.2730 O.2   205  LEU205     -0.2864
     64  CB        23.8870    4.8630    3.8700 C.3   205  LEU205      0.0297
     65  CG        24.6660    6.1630    3.8220 C.3   205  LEU205      0.0022
     66  CD1       26.1250    5.9770    3.4200 C.3   205  LEU205      0.0001
     67  CD2       23.9810    7.0670    2.7900 C.3   205  LEU205      0.0001
     68  N         25.3510   -0.1780    7.0490 N.3   208  SER208     -0.1217
     69  CA        26.0230    0.4820    8.1760 C.3   208  SER208      0.1889
     70  C         25.0390    0.8800    9.2770 C.2   208  SER208      0.2288
     71  O         25.2980    0.6390   10.4680 O.2   208  SER208     -0.2866
     72  CB        26.8240    1.7010    7.7380 C.3   208  SER208      0.2089
     73  OG        27.9540    1.3360    6.9660 O.3   208  SER208     -0.2183
     74  N         25.3600   -1.9800   17.9060 N.3   216  ILE216     -0.1245
     75  CA        25.4810   -0.9930   18.9900 C.3   216  ILE216      0.1561
     76  C         24.5070   -1.3730   20.1060 C.2   216  ILE216      0.2260
     77  O         24.7800   -1.2300   21.3090 O.2   216  ILE216     -0.2867
     78  CB        25.3020    0.4670   18.4530 C.3   216  ILE216      0.0252
     79  CG1       26.5680    0.8850   17.6600 C.3   216  ILE216      0.0019
     80  CG2       24.9530    1.4910   19.5650 C.3   216  ILE216      0.0019
     81  CD1       26.4430    2.2250   16.8830 C.3   216  ILE216      0.0001
     82  N         25.7520   -4.3940   21.7460 N.3   219  ARG219     -0.1245
     83  CA        26.7540   -3.9030   22.6960 C.3   219  ARG219      0.1563
     84  C         26.0450   -3.4720   23.9840 C.2   219  ARG219      0.2260
     85  O         26.4630   -3.8320   25.0940 O.2   219  ARG219     -0.2867
     86  CB        27.5430   -2.7350   22.1090 C.3   219  ARG219      0.0307
     87  CG        28.3330   -1.8910   23.0980 C.3   219  ARG219      0.0489
     88  CD        28.6090   -0.5300   22.5550 C.3   219  ARG219      0.2205
     89  NE        29.1340    0.3720   23.5690 N.pl3 219  ARG219     -0.0865
     90  CZ        29.3500    1.6730   23.3760 C.cat 219  ARG219      0.5346
     91  NH1       29.0950    2.2680   22.2140 N.pl3 219  ARG219      0.1354
     92  NH2       29.8360    2.4040   24.3800 N.pl3 219  ARG219      0.1354
@<TRIPOS>BOND
     1    59    57    1
     2    53    54    1
     3    57    54    1
     4    57    58    1
     5    54    55    1
     6    67    65    1
     7    60    55   am
     8    60    61    1
     9    66    65    1
    10    55    56    2
    11    65    64    1
    12    64    61    1
    13    61    62    1
    14    62    63    2
    15    48    47    2
    16    73    72    1
    17    68    69    1
    18    47    46    1
    19    51    50    1
    20    72    69    1
    21    41    40    2
    22    46    49    1
    23    46    45    1
    24    69    70    1
    25    49    50    1
    26    40    45   am
    27    40    39    1
    28    50    52    1
    29    70    71    2
    30    43    42    1
    31    39    42    1
    32    39    38    1
    33    42    44    1
    34    34    33    2
    35    33    32    1
    36    36    35    1
    37    26    25    2
    38    32    35    1
    39    32    31    1
    40    35    37    1
    41    25    31   am
    42    25    24    1
    43    24    27    1
    44    24    23    1
    45    27    28    1
    46    81    79    1
    47    19    18    2
    48    79    78    1
    49    74    75    1
    50    28    29    2
    51    28    30   am
    52    78    75    1
    53    78    80    1
    54    18    17    1
    55    22    20    1
    56    75    76    1
    57    17    20    1
    58    17    16    1
    59    20    21    1
    60    76    77    2
    61    10     9    2
    62    16     9   am
    63     9     8    1
    64    82    83    1
    65    86    83    1
    66    86    87    1
    67    91    90    1
    68    15    14    1
    69     8     7    1
    70     8    11    1
    71    88    87    1
    72    88    89    1
    73    14    13    1
    74    83    84    1
    75    12    13    1
    76    12    11    1
    77    90    89    2
    78    90    92    1
    79     4     3    2
    80    84    85    2
    81     3     2    1
    82     6     5    1
    83     2     5    1
    84     2     1    1
