@<TRIPOS>MOLECULE
tmp/2brdA04.pdb
 119 112 0 0 0
SMALL
GASTEIGER

@<TRIPOS>ATOM
      1  N         12.6220   -5.9860   17.8090 N.3    39  ILE39      -0.1245
      2  CA        12.5550   -4.7180   17.0730 C.3    39  ILE39       0.1561
      3  C         13.7610   -4.5650   16.1530 C.2    39  ILE39       0.2260
      4  O         13.5720   -4.2430   14.9670 O.2    39  ILE39      -0.2867
      5  CB        12.3320   -3.4980   18.0340 C.3    39  ILE39       0.0252
      6  CG1       10.9150   -3.5880   18.6560 C.3    39  ILE39       0.0019
      7  CG2       12.5540   -2.1300   17.3360 C.3    39  ILE39       0.0019
      8  CD1       10.5920   -2.5180   19.7320 C.3    39  ILE39       0.0001
      9  N         11.0000    2.6940    4.5680 N.3    81  LEU81      -0.1231
     10  CA         9.6360    2.8950    5.0400 C.3    81  LEU81       0.1693
     11  C          9.2920    2.0460    6.2630 C.2    81  LEU81       0.2592
     12  O          8.4880    2.5710    7.0630 O.2    81  LEU81      -0.2718
     13  CB         8.6290    2.7000    3.9020 C.3    81  LEU81       0.0284
     14  CG         7.1480    2.8330    4.2050 C.3    81  LEU81       0.0019
     15  CD1        6.7880    4.2370    4.6780 C.3    81  LEU81       0.0001
     16  CD2        6.3650    2.4980    2.9340 C.3    81  LEU81       0.0001
     17  N          9.8170    0.8360    6.3770 N.am   82  PHE82      -0.1976
     18  CA         9.4700    0.0450    7.5960 C.3    82  PHE82       0.1639
     19  C         10.6060    0.2180    8.6110 C.2    82  PHE82       0.2290
     20  O         10.4310    0.5420    9.8090 O.2    82  PHE82      -0.2864
     21  CB         9.0920   -1.3840    7.2500 C.3    82  PHE82       0.0560
     22  CG         7.8340   -1.4980    6.4330 C.ar   82  PHE82      -0.0200
     23  CD1        6.5840   -1.4450    7.0580 C.ar   82  PHE82      -0.0042
     24  CD2        7.9000   -1.6500    5.0480 C.ar   82  PHE82      -0.0042
     25  CE1        5.4140   -1.5490    6.3190 C.ar   82  PHE82      -0.0003
     26  CE2        6.7310   -1.7560    4.2830 C.ar   82  PHE82      -0.0003
     27  CZ         5.4860   -1.7000    4.9320 C.ar   82  PHE82      -0.0000
     28  N         10.9650    3.7250   10.7630 N.3    85  PRO85      -0.2102
     29  CA         9.9780    3.6460   11.8400 C.3    85  PRO85       0.1504
     30  C         10.4550    2.7510   12.9760 C.2    85  PRO85       0.2575
     31  O         10.5850    3.2510   14.1070 O.2    85  PRO85      -0.2718
     32  CB         8.7380    3.0420   11.1700 C.3    85  PRO85       0.0282
     33  CG         8.8240    3.5310    9.7560 C.3    85  PRO85       0.0208
     34  CD        10.3030    3.7370    9.4500 C.3    85  PRO85       0.0893
     35  N         10.7070    1.4830   12.6510 N.am   86  LEU86      -0.1980
     36  CA        11.1560    0.5270   13.6820 C.3    86  LEU86       0.1596
     37  C         12.4020    0.9410   14.4500 C.2    86  LEU86       0.2287
     38  O         12.4400    0.7920   15.6910 O.2    86  LEU86      -0.2864
     39  CB        11.2310   -0.8670   13.0380 C.3    86  LEU86       0.0297
     40  CG         9.9310   -1.6580   12.9910 C.3    86  LEU86       0.0022
     41  CD1        8.8860   -0.9610   12.1300 C.3    86  LEU86       0.0001
     42  CD2       10.2230   -3.0500   12.4370 C.3    86  LEU86       0.0001
     43  N         11.6890    3.8170   16.6490 N.3    89  LEU89      -0.1245
     44  CA        10.8790    3.2200   17.7010 C.3    89  LEU89       0.1561
     45  C         11.8040    2.6710   18.7920 C.2    89  LEU89       0.2260
     46  O         11.5960    2.9970   19.9620 O.2    89  LEU89      -0.2867
     47  CB         9.9810    2.1240   17.1100 C.3    89  LEU89       0.0270
     48  CG         9.4390    1.1380   18.1430 C.3    89  LEU89       0.0019
     49  CD1        8.2370    1.7340   18.8590 C.3    89  LEU89       0.0001
     50  CD2        9.0960   -0.1630   17.4360 C.3    89  LEU89       0.0001
     51  N         12.2420    4.2630   22.3990 N.3    93  LEU93      -0.1245
     52  CA        11.8750    3.2800   23.4170 C.3    93  LEU93       0.1561
     53  C         12.9460    3.1730   24.5000 C.2    93  LEU93       0.2260
     54  O         12.5920    3.0390   25.6870 O.2    93  LEU93      -0.2867
     55  CB        11.5910    1.9560   22.7060 C.3    93  LEU93       0.0270
     56  CG        10.5530    0.9840   23.2170 C.3    93  LEU93       0.0019
     57  CD1        9.2900    1.6740   23.7210 C.3    93  LEU93       0.0001
     58  CD2       10.1740    0.0650   22.0470 C.3    93  LEU93       0.0001
     59  N          9.3950    7.2630   26.7590 N.3    97  ALA97      -0.1231
     60  CA         8.2650    6.3220   26.7680 C.3    97  ALA97       0.1694
     61  C          6.9520    7.1080   26.7540 C.2    97  ALA97       0.2592
     62  O          5.9220    6.6630   27.2800 O.2    97  ALA97      -0.2718
     63  CB         8.3560    5.3830   27.9600 C.3    97  ALA97       0.0304
     64  N          7.0400    8.2750   26.1400 N.am   98  ASP98      -0.1960
     65  CA         5.9100    9.2050   26.0030 C.3    98  ASP98       0.1840
     66  C          5.1660    8.9020   24.6990 C.2    98  ASP98       0.2621
     67  O          5.7110    9.0500   23.5940 O.2    98  ASP98      -0.2715
     68  CB         6.3880   10.6500   26.1080 C.3    98  ASP98       0.1450
     69  CG         7.2290   10.9260   27.3400 C.2    98  ASP98       0.3671
     70  OD1        6.7450   10.8230   28.4770 O.co2  98  ASP98      -0.2456
     71  OD2        8.4170   11.2570   27.1350 O.co2  98  ASP98      -0.2456
     72  N          3.9210    8.4970   24.8740 N.am   99  GLN99      -0.1977
     73  CA         3.0140    8.1490   23.7700 C.3    99  GLN99       0.1601
     74  C          3.0550    9.2430   22.7020 C.2    99  GLN99       0.2287
     75  O          3.3950    8.9760   21.5400 O.2    99  GLN99      -0.2864
     76  CB         1.5820    7.9060   24.2400 C.3    99  GLN99       0.0394
     77  CG         0.6460    7.4190   23.1490 C.3    99  GLN99       0.0908
     78  CD        -0.8120    7.6260   23.4740 C.2    99  GLN99       0.2608
     79  OE1       -1.1840    8.1480   24.5220 O.2    99  GLN99      -0.2717
     80  NE2       -1.6710    7.2080   22.5460 N.am   99  GLN99      -0.0878
     81  N          6.6530    9.6010   20.9220 N.3   102  ILE102     -0.1231
     82  CA         6.8330    8.4760   20.0030 C.3   102  ILE102      0.1692
     83  C          5.9350    8.5650   18.7740 C.2   102  ILE102      0.2591
     84  O          6.4370    8.6280   17.6400 O.2   102  ILE102     -0.2718
     85  CB         6.6460    7.0950   20.7340 C.3   102  ILE102      0.0266
     86  CG1        7.5320    7.0240   21.9990 C.3   102  ILE102      0.0019
     87  CG2        6.9130    5.8990   19.7790 C.3   102  ILE102      0.0020
     88  CD1        7.2570    5.7960   22.9110 C.3   102  ILE102      0.0001
     89  N          4.6350    8.5800   18.9980 N.am  103  LEU103     -0.1980
     90  CA         3.6060    8.6440   17.9500 C.3   103  LEU103      0.1596
     91  C          3.9130    9.7400   16.9310 C.2   103  LEU103      0.2287
     92  O          3.9690    9.5070   15.7090 O.2   103  LEU103     -0.2864
     93  CB         2.2440    8.7800   18.6410 C.3   103  LEU103      0.0297
     94  CG         1.0580    7.9770   18.1450 C.3   103  LEU103      0.0022
     95  CD1       -0.2100    8.3710   18.9000 C.3   103  LEU103      0.0001
     96  CD2        0.8500    8.2110   16.6510 C.3   103  LEU103      0.0001
     97  N          7.1320    9.0100   14.9280 N.3   106  VAL106     -0.1231
     98  CA         6.8830    7.9470   13.9480 C.3   106  VAL106      0.1692
     99  C          6.0170    8.4420   12.7870 C.2   106  VAL106      0.2592
    100  O          6.1640    7.9450   11.6540 O.2   106  VAL106     -0.2718
    101  CB         6.3400    6.6790   14.6340 C.3   106  VAL106      0.0266
    102  CG1        6.1250    5.5340   13.6490 C.3   106  VAL106      0.0020
    103  CG2        7.2250    6.2230   15.7830 C.3   106  VAL106      0.0020
    104  N          5.1350    9.3830   13.0720 N.am  107  GLY107     -0.1957
    105  CA         4.2400    9.9900   12.0680 C.3   107  GLY107      0.1869
    106  C          5.0860   10.8680   11.1360 C.2   107  GLY107      0.2309
    107  O          4.9890   10.8360    9.8960 O.2   107  GLY107     -0.2863
    108  N          7.1870    8.7170    9.1180 N.3   110  GLY110     -0.1210
    109  CA         6.2400    8.1910    8.1340 C.3   110  GLY110      0.1956
    110  C          6.2030    9.0950    6.9040 C.2   110  GLY110      0.2611
    111  O          6.4920    8.6360    5.7820 O.2   110  GLY110     -0.2717
    112  N          5.8770   10.3640    7.1520 N.am  111  ILE111     -0.1979
    113  CA         5.8280   11.3270    6.0330 C.3   111  ILE111      0.1595
    114  C          7.2290   11.5330    5.4630 C.2   111  ILE111      0.2287
    115  O          7.3050   11.8140    4.2530 O.2   111  ILE111     -0.2864
    116  CB         5.0360   12.6350    6.3460 C.3   111  ILE111      0.0276
    117  CG1        5.9690   13.8280    6.6690 C.3   111  ILE111      0.0022
    118  CG2        3.9640   12.4320    7.4570 C.3   111  ILE111      0.0022
    119  CD1        6.4570   14.6100    5.4160 C.3   111  ILE111      0.0001
@<TRIPOS>BOND
     1    16    14    1
     2    13    14    1
     3    13    10    1
     4    14    15    1
     5   115   114    2
     6    26    27   ar
     7    26    24   ar
     8     9    10    1
     9    27    25   ar
    10    10    11    1
    11    24    22   ar
    12   119   117    1
    13   114   113    1
    14   111   110    2
    15   113   116    1
    16   113   112    1
    17    11    17   am
    18    11    12    2
    19    25    23   ar
    20   116   117    1
    21   116   118    1
    22    17    18    1
    23    22    23   ar
    24    22    21    1
    25   110   112   am
    26   110   109    1
    27    21    18    1
    28    18    19    1
    29   109   108    1
    30    19    20    2
    31    34    33    1
    32    34    28    1
    33    33    32    1
    34   107   106    2
    35    28    29    1
    36   106   105    1
    37    32    29    1
    38   100    99    2
    39    29    30    1
    40   105   104    1
    41    41    40    1
    42    42    40    1
    43    35    30   am
    44    35    36    1
    45    99   104   am
    46    99    98    1
    47    30    31    2
    48    40    39    1
    49    39    36    1
    50   102   101    1
    51    36    37    1
    52    98   101    1
    53    98    97    1
    54    37    38    2
    55   101   103    1
    56     4     3    2
    57    92    91    2
    58     3     2    1
    59    43    44    1
    60    96    94    1
    61    91    90    1
    62     2     1    1
    63     2     5    1
    64    47    44    1
    65    47    48    1
    66     7     5    1
    67    50    48    1
    68    84    83    2
    69    44    45    1
    70    90    93    1
    71    90    89    1
    72     5     6    1
    73    48    49    1
    74    94    93    1
    75    94    95    1
    76     6     8    1
    77    83    89   am
    78    83    82    1
    79    45    46    2
    80    87    85    1
    81    82    85    1
    82    82    81    1
    83    85    86    1
    84    75    74    2
    85    86    88    1
    86    58    56    1
    87    51    52    1
    88    80    78   am
    89    74    73    1
    90    55    56    1
    91    55    52    1
    92    77    78    1
    93    77    76    1
    94    56    57    1
    95    52    53    1
    96    78    79    2
    97    67    66    2
    98    73    76    1
    99    73    72    1
   100    53    54    2
   101    66    72   am
   102    66    65    1
   103    65    68    1
   104    65    64    1
   105    68    69    1
   106    64    61   am
   107    61    60    1
   108    61    62    2
   109    59    60    1
   110    60    63    1
   111    71    69   ar
   112    69    70   ar
