@<TRIPOS>MOLECULE
tmp/2brdA00.pdb
 155 149 0 0 0
SMALL
GASTEIGER

@<TRIPOS>ATOM
      1  N         11.9480   -7.6440   -9.5050 N.3    58  TYR58      -0.1241
      2  CA        10.6620   -8.0810  -10.0690 C.3    58  TYR58       0.1605
      3  C          9.8210   -6.8880  -10.5180 C.2    58  TYR58       0.2264
      4  O         10.2870   -5.7390  -10.5150 O.2    58  TYR58      -0.2867
      5  CB         9.9040   -8.9750   -9.0760 C.3    58  TYR58       0.0534
      6  CG         9.0670   -8.2700   -8.0370 C.ar   58  TYR58      -0.0201
      7  CD1        9.6350   -7.4710   -7.0410 C.ar   58  TYR58      -0.0009
      8  CD2        7.6780   -8.4080   -8.0510 C.ar   58  TYR58      -0.0009
      9  CE1        8.8440   -6.8300   -6.0890 C.ar   58  TYR58       0.0417
     10  CE2        6.8720   -7.7760   -7.1090 C.ar   58  TYR58       0.0417
     11  CZ         7.4600   -6.9880   -6.1290 C.ar   58  TYR58       0.1957
     12  OH         6.6410   -6.3800   -5.2200 O.3    58  TYR58      -0.2866
     13  N          8.1930   -4.8440  -13.2270 N.3    60  LEU60      -0.1245
     14  CA         8.3930   -4.4360  -14.6260 C.3    60  LEU60       0.1561
     15  C          9.5530   -3.4400  -14.6820 C.2    60  LEU60       0.2260
     16  O         10.0170   -2.9690  -13.6290 O.2    60  LEU60      -0.2867
     17  CB         7.0650   -3.9800  -15.2040 C.3    60  LEU60       0.0270
     18  CG         6.3590   -2.7290  -14.7400 C.3    60  LEU60       0.0019
     19  CD1        5.1950   -2.3930  -15.6750 C.3    60  LEU60       0.0001
     20  CD2        5.8080   -2.9190  -13.3290 C.3    60  LEU60       0.0001
     21  N          9.9810   -0.1330  -16.2080 N.3    62  MET62      -0.1230
     22  CA         9.4780    1.1420  -16.7490 C.3    62  MET62       0.1702
     23  C         10.2490    2.2680  -16.0520 C.2    62  MET62       0.2592
     24  O         10.7410    2.0610  -14.9290 O.2    62  MET62      -0.2718
     25  CB         7.9710    1.2570  -16.6040 C.3    62  MET62       0.0401
     26  CG         7.2520    0.3480  -17.5700 C.3    62  MET62       0.0596
     27  SD         5.4560    0.6230  -17.3750 S.3    62  MET62      -0.1393
     28  CE         4.8290   -0.4870  -18.6500 C.3    62  MET62       0.0692
     29  N         10.3460    3.4010  -16.7220 N.am   63  VAL63      -0.1966
     30  CA        11.0630    4.5680  -16.1930 C.3    63  VAL63       0.1712
     31  C         10.1110    5.6970  -15.7920 C.2    63  VAL63       0.2458
     32  O          9.2470    6.1160  -16.5760 O.2    63  VAL63      -0.2730
     33  CB        12.1360    5.0530  -17.1910 C.3    63  VAL63       0.0289
     34  CG1       13.2950    4.0780  -17.3520 C.3    63  VAL63       0.0023
     35  CG2       11.5440    5.4030  -18.5480 C.3    63  VAL63       0.0023
     36  N         10.3220    6.1670  -14.5680 N.am   64  PRO64      -0.2727
     37  CA         9.5260    7.2660  -14.0040 C.3    64  PRO64       0.1402
     38  C         10.0000    8.5840  -14.6100 C.2    64  PRO64       0.2269
     39  O          9.2040    9.4340  -15.0320 O.2    64  PRO64      -0.2865
     40  CB         9.7390    7.1650  -12.5040 C.3    64  PRO64       0.0296
     41  CG        11.0430    6.4480  -12.3190 C.3    64  PRO64       0.0237
     42  CD        11.3370    5.7040  -13.6100 C.3    64  PRO64       0.0939
     43  N         13.0640    0.8350  -12.1970 N.3    70  ASN70      -0.1240
     44  CA        12.2190    1.2600  -11.0780 C.3    70  ASN70       0.1653
     45  C         12.0490    0.3110   -9.9020 C.2    70  ASN70       0.2266
     46  O         11.5980    0.7860   -8.8340 O.2    70  ASN70      -0.2867
     47  CB        10.8620    1.7480  -11.6050 C.3    70  ASN70       0.1155
     48  CG         9.9340    0.6790  -12.1330 C.2    70  ASN70       0.2627
     49  OD1       10.3320   -0.4550  -12.4310 O.2    70  ASN70      -0.2716
     50  ND2        8.6530    1.0350  -12.2640 N.am   70  ASN70      -0.0877
     51  N         11.9130    1.5370   -5.7180 N.3    74  TRP74      -0.1241
     52  CA        10.6920    1.0950   -5.0110 C.3    74  TRP74       0.1605
     53  C         11.0860    0.2790   -3.7770 C.2    74  TRP74       0.2264
     54  O         10.6700    0.5750   -2.6360 O.2    74  TRP74      -0.2867
     55  CB         9.6700    0.4640   -5.9210 C.3    74  TRP74       0.0550
     56  CG         9.2790   -0.9560   -5.9990 C.ar   74  TRP74       0.0003
     57  CD1        9.2760   -1.9130   -5.0150 C.ar   74  TRP74       0.0946
     58  CD2        8.7370   -1.6250   -7.1600 C.ar   74  TRP74       0.0152
     59  NE1        8.8140   -3.1170   -5.4830 N.ar   74  TRP74      -0.2442
     60  CE2        8.4710   -2.9660   -6.7970 C.ar   74  TRP74       0.0810
     61  CE3        8.4720   -1.2120   -8.4630 C.ar   74  TRP74       0.0012
     62  CZ2        7.9530   -3.8930   -7.6910 C.ar   74  TRP74       0.0191
     63  CZ3        7.9580   -2.1370   -9.3520 C.ar   74  TRP74       0.0001
     64  CH2        7.7000   -3.4550   -8.9830 C.ar   74  TRP74       0.0015
     65  N         12.6250    2.3350   -0.9920 N.3    77  TYR77      -0.1227
     66  CA        11.5580    3.0140   -0.2350 C.3    77  TYR77       0.1736
     67  C         10.8180    2.0570    0.6790 C.2    77  TYR77       0.2595
     68  O         10.5470    2.5190    1.8020 O.2    77  TYR77      -0.2718
     69  CB        10.6430    3.9010   -1.1010 C.3    77  TYR77       0.0548
     70  CG        11.4920    4.8850   -1.8870 C.ar   77  TYR77      -0.0200
     71  CD1       12.2320    5.8880   -1.2610 C.ar   77  TYR77      -0.0009
     72  CD2       11.5700    4.7780   -3.2720 C.ar   77  TYR77      -0.0009
     73  CE1       13.0240    6.7640   -2.0020 C.ar   77  TYR77       0.0417
     74  CE2       12.3570    5.6390   -4.0280 C.ar   77  TYR77       0.0417
     75  CZ        13.0850    6.6310   -3.3850 C.ar   77  TYR77       0.1957
     76  OH        13.8350    7.4550   -4.1750 O.3    77  TYR77      -0.2866
     77  N         10.5240    0.8320    0.2830 N.am   78  ALA78      -0.1980
     78  CA         9.8320   -0.1130    1.1880 C.3    78  ALA78       0.1597
     79  C         10.6930   -0.3420    2.4380 C.2    78  ALA78       0.2287
     80  O         10.2700   -0.2300    3.6100 O.2    78  ALA78      -0.2864
     81  CB         9.5290   -1.4130    0.4590 C.3    78  ALA78       0.0319
     82  N         11.0000    2.6940    4.5680 N.3    81  LEU81      -0.1231
     83  CA         9.6360    2.8950    5.0400 C.3    81  LEU81       0.1693
     84  C          9.2920    2.0460    6.2630 C.2    81  LEU81       0.2592
     85  O          8.4880    2.5710    7.0630 O.2    81  LEU81      -0.2718
     86  CB         8.6290    2.7000    3.9020 C.3    81  LEU81       0.0284
     87  CG         7.1480    2.8330    4.2050 C.3    81  LEU81       0.0019
     88  CD1        6.7880    4.2370    4.6780 C.3    81  LEU81       0.0001
     89  CD2        6.3650    2.4980    2.9340 C.3    81  LEU81       0.0001
     90  N          9.8170    0.8360    6.3770 N.am   82  PHE82      -0.1976
     91  CA         9.4700    0.0450    7.5960 C.3    82  PHE82       0.1639
     92  C         10.6060    0.2180    8.6110 C.2    82  PHE82       0.2290
     93  O         10.4310    0.5420    9.8090 O.2    82  PHE82      -0.2864
     94  CB         9.0920   -1.3840    7.2500 C.3    82  PHE82       0.0560
     95  CG         7.8340   -1.4980    6.4330 C.ar   82  PHE82      -0.0200
     96  CD1        6.5840   -1.4450    7.0580 C.ar   82  PHE82      -0.0042
     97  CD2        7.9000   -1.6500    5.0480 C.ar   82  PHE82      -0.0042
     98  CE1        5.4140   -1.5490    6.3190 C.ar   82  PHE82      -0.0003
     99  CE2        6.7310   -1.7560    4.2830 C.ar   82  PHE82      -0.0003
    100  CZ         5.4860   -1.7000    4.9320 C.ar   82  PHE82      -0.0000
    101  N          7.1870    8.7170    9.1180 N.3   110  GLY110     -0.1210
    102  CA         6.2400    8.1910    8.1340 C.3   110  GLY110      0.1956
    103  C          6.2030    9.0950    6.9040 C.2   110  GLY110      0.2611
    104  O          6.4920    8.6360    5.7820 O.2   110  GLY110     -0.2717
    105  N          5.8770   10.3640    7.1520 N.am  111  ILE111     -0.1979
    106  CA         5.8280   11.3270    6.0330 C.3   111  ILE111      0.1595
    107  C          7.2290   11.5330    5.4630 C.2   111  ILE111      0.2287
    108  O          7.3050   11.8140    4.2530 O.2   111  ILE111     -0.2864
    109  CB         5.0360   12.6350    6.3460 C.3   111  ILE111      0.0276
    110  CG1        5.9690   13.8280    6.6690 C.3   111  ILE111      0.0022
    111  CG2        3.9640   12.4320    7.4570 C.3   111  ILE111      0.0022
    112  CD1        6.4570   14.6100    5.4160 C.3   111  ILE111      0.0001
    113  N          7.7070    8.3020    3.1940 N.3   114  GLY114     -0.1210
    114  CA         6.5470    8.3850    2.3100 C.3   114  GLY114      0.1956
    115  C          6.6360    9.4830    1.2660 C.2   114  GLY114      0.2612
    116  O          6.5750    9.2180    0.0490 O.2   114  GLY114     -0.2717
    117  N          6.7970   10.7160    1.7140 N.am  115  THR115     -0.1952
    118  CA         6.9130   11.9140    0.8760 C.3   115  THR115      0.1897
    119  C          8.1530   11.8110   -0.0070 C.2   115  THR115      0.2313
    120  O          8.1280   12.2560   -1.1720 O.2   115  THR115     -0.2863
    121  CB         6.8520   13.2500    1.7010 C.3   115  THR115      0.1794
    122  OG1        5.5990   13.2110    2.4610 O.3   115  THR115     -0.2208
    123  CG2        6.9410   14.5110    0.8380 C.3   115  THR115      0.0378
    124  N          9.3180    9.1020   -1.2000 N.3   117  LEU117     -0.1231
    125  CA         8.8050    8.1770   -2.2170 C.3   117  LEU117      0.1693
    126  C          7.9640    8.9520   -3.2330 C.2   117  LEU117      0.2591
    127  O          8.1230    8.7820   -4.4550 O.2   117  LEU117     -0.2718
    128  CB         8.0630    7.0440   -1.5030 C.3   117  LEU117      0.0284
    129  CG         7.1050    6.1720   -2.2930 C.3   117  LEU117      0.0019
    130  CD1        7.8240    5.0120   -2.9650 C.3   117  LEU117      0.0001
    131  CD2        6.0400    5.6490   -1.3320 C.3   117  LEU117      0.0001
    132  N          7.0980    9.8130   -2.7200 N.am  118  VAL118     -0.1980
    133  CA         6.2250   10.6570   -3.5510 C.3   118  VAL118      0.1595
    134  C          7.0920   11.3660   -4.5980 C.2   118  VAL118      0.2287
    135  O          6.8890   11.2550   -5.8170 O.2   118  VAL118     -0.2864
    136  CB         5.4270   11.6470   -2.6830 C.3   118  VAL118      0.0276
    137  CG1        4.5890   12.6060   -3.5230 C.3   118  VAL118      0.0022
    138  CG2        4.5590   10.9620   -1.6410 C.3   118  VAL118      0.0022
    139  N          8.8510    9.1590   -7.2090 N.3   121  LEU121     -0.1245
    140  CA         7.9550    8.7080   -8.2740 C.3   121  LEU121      0.1561
    141  C          7.3580    9.8170   -9.1200 C.2   121  LEU121      0.2260
    142  O          6.8420    9.4540  -10.2030 O.2   121  LEU121     -0.2867
    143  CB         6.9480    7.7550   -7.6060 C.3   121  LEU121      0.0270
    144  CG         7.5630    6.6380   -6.7690 C.3   121  LEU121      0.0019
    145  CD1        6.4830    5.8430   -6.0500 C.3   121  LEU121      0.0001
    146  CD2        8.3690    5.7110   -7.6750 C.3   121  LEU121      0.0001
    147  N          6.5290   12.1110  -11.8500 N.3   123  LYS123     -0.1245
    148  CA         6.7610   12.0910  -13.2940 C.3   123  LYS123      0.1561
    149  C          7.2430   13.4090  -13.8720 C.2   123  LYS123      0.2260
    150  O          8.0280   13.3900  -14.8390 O.2   123  LYS123     -0.2867
    151  CB         5.4890   11.6140  -13.9960 C.3   123  LYS123      0.0271
    152  CG         4.9040   12.4930  -15.0960 C.3   123  LYS123      0.0035
    153  CD         3.3860   12.5540  -14.9630 C.3   123  LYS123      0.0206
    154  CE         2.7960   13.8000  -15.5880 C.3   123  LYS123      0.1093
    155  NZ         1.3900   13.9840  -15.1410 N.3   123  LYS123     -0.1314
@<TRIPOS>BOND
     1    28    27    1
     2    35    33    1
     3    26    27    1
     4    26    25    1
     5    34    33    1
     6    33    30    1
     7    22    25    1
     8    22    21    1
     9    22    23    1
    10    29    30    1
    11    29    23   am
    12    32    31    2
    13    30    31    1
    14    23    24    2
    15    31    36   am
    16    19    18    1
    17   154   155    1
    18   154   153    1
    19    17    18    1
    20    17    14    1
    21   152   153    1
    22   152   151    1
    23    39    38    2
    24   150   149    2
    25    18    20    1
    26    15    14    1
    27    15    16    2
    28    14    13    1
    29    38    37    1
    30    36    37    1
    31    36    42    1
    32    37    40    1
    33   151   148    1
    34   149   148    1
    35    42    41    1
    36   148   147    1
    37    40    41    1
    38    49    48    2
    39    50    48   am
    40    43    44    1
    41    48    47    1
    42    47    44    1
    43    44    45    1
    44     3     4    2
    45     3     2    1
    46   142   141    2
    47     2     1    1
    48     2     5    1
    49    45    46    2
    50    63    64   ar
    51    63    61   ar
    52   141   140    1
    53     5     6    1
    54    64    62   ar
    55    61    58   ar
    56   140   143    1
    57   140   139    1
    58     8     6   ar
    59     8    10   ar
    60     6     7   ar
    61    62    60   ar
    62   146   144    1
    63   143   144    1
    64    58    60   ar
    65    58    56   ar
    66    10    11   ar
    67     7     9   ar
    68    60    59   ar
    69   144   145    1
    70    11     9   ar
    71    11    12    1
    72    56    55    1
    73    56    57   ar
    74    55    52    1
    75   135   134    2
    76    51    52    1
    77    59    57   ar
    78    52    53    1
    79   134   133    1
    80   127   126    2
    81    76    75    1
    82    74    75   ar
    83    74    72   ar
    84    53    54    2
    85   133   132    1
    86   133   136    1
    87   137   136    1
    88    75    73   ar
    89    72    70   ar
    90   126   132   am
    91   126   125    1
    92   130   129    1
    93   136   138    1
    94   129   128    1
    95   129   131    1
    96   125   128    1
    97   125   124    1
    98    73    71   ar
    99    70    71   ar
   100    70    69    1
   101   120   119    2
   102    69    66    1
   103    65    66    1
   104    66    67    1
   105   119   118    1
   106   116   115    2
   107    77    67   am
   108    77    78    1
   109    81    78    1
   110    67    68    2
   111   123   121    1
   112   118   121    1
   113   118   117    1
   114    78    79    1
   115   115   117   am
   116   115   114    1
   117   121   122    1
   118   114   113    1
   119    79    80    2
   120    89    87    1
   121    86    87    1
   122    86    83    1
   123    87    88    1
   124   108   107    2
   125    99   100   ar
   126    99    97   ar
   127    82    83    1
   128   100    98   ar
   129    83    84    1
   130    97    95   ar
   131   112   110    1
   132   107   106    1
   133   104   103    2
   134   106   109    1
   135   106   105    1
   136    84    90   am
   137    84    85    2
   138    98    96   ar
   139   109   110    1
   140   109   111    1
   141    90    91    1
   142    95    96   ar
   143    95    94    1
   144   103   105   am
   145   103   102    1
   146    94    91    1
   147    91    92    1
   148   102   101    1
   149    92    93    2
