@<TRIPOS>MOLECULE
tmp/2brdA05.pdb
 136 127 0 0 0
SMALL
GASTEIGER

@<TRIPOS>ATOM
      1  N         18.0050   13.0770   23.4870 N.3   150  PHE150     -0.1241
      2  CA        19.2610   13.1080   24.2550 C.3   150  PHE150      0.1605
      3  C         19.0860   14.0350   25.4660 C.2   150  PHE150      0.2264
      4  O         19.1710   13.5940   26.6210 O.2   150  PHE150     -0.2867
      5  CB        20.4710   13.5330   23.4250 C.3   150  PHE150      0.0534
      6  CG        21.7160   13.7440   24.2400 C.ar  150  PHE150     -0.0203
      7  CD1       22.4400   12.6610   24.7320 C.ar  150  PHE150     -0.0042
      8  CD2       22.1380   15.0450   24.5260 C.ar  150  PHE150     -0.0042
      9  CE1       23.5930   12.8700   25.4980 C.ar  150  PHE150     -0.0003
     10  CE2       23.2770   15.2750   25.2820 C.ar  150  PHE150     -0.0003
     11  CZ        24.0060   14.1870   25.7690 C.ar  150  PHE150     -0.0000
     12  N         17.0270   13.6420   29.7010 N.3   153  LYS153     -0.1245
     13  CA        17.6100   12.4260   30.2840 C.3   153  LYS153      0.1561
     14  C         16.5430   11.6870   31.0870 C.2   153  LYS153      0.2260
     15  O         16.2040   10.5340   30.7770 O.2   153  LYS153     -0.2867
     16  CB        18.8190   12.7340   31.1530 C.3   153  LYS153      0.0271
     17  CG        19.6690   11.5120   31.5010 C.3   153  LYS153      0.0035
     18  CD        20.9820   11.9240   32.1500 C.3   153  LYS153      0.0206
     19  CE        21.8840   10.7360   32.4130 C.3   153  LYS153      0.1093
     20  NZ        23.1850   11.1840   32.9720 N.3   153  LYS153     -0.1314
     21  N         23.1740    5.2280   28.1770 N.3   162  ALA162     -0.1231
     22  CA        23.5120    6.6160   27.8450 C.3   162  ALA162      0.1694
     23  C         24.5600    6.6630   26.7350 C.2   162  ALA162      0.2592
     24  O         24.4030    7.4080   25.7530 O.2   162  ALA162     -0.2718
     25  CB        23.9770    7.3600   29.0890 C.3   162  ALA162      0.0304
     26  N         25.6040    5.8720   26.9080 N.am  163  SER163     -0.1952
     27  CA        26.7180    5.7660   25.9550 C.3   163  SER163      0.1924
     28  C         26.2320    5.1760   24.6320 C.2   163  SER163      0.2314
     29  O         26.5160    5.7270   23.5490 O.2   163  SER163     -0.2863
     30  CB        27.8720    4.9630   26.5300 C.3   163  SER163      0.2116
     31  OG        28.9900    4.9520   25.6600 O.3   163  SER163     -0.2180
     32  N         24.3640    7.6500   22.9070 N.3   166  LYS166     -0.1231
     33  CA        25.3280    8.6470   22.4450 C.3   166  LYS166      0.1693
     34  C         25.9470    8.2800   21.0970 C.2   166  LYS166      0.2591
     35  O         26.0130    9.1500   20.2080 O.2   166  LYS166     -0.2718
     36  CB        26.4640    8.8950   23.4420 C.3   166  LYS166      0.0285
     37  CG        27.3040   10.1200   23.0620 C.3   166  LYS166      0.0035
     38  CD        28.7940    9.9060   23.2700 C.3   166  LYS166      0.0206
     39  CE        29.6250   11.0080   22.6410 C.3   166  LYS166      0.1093
     40  NZ        31.0090   10.5340   22.3850 N.3   166  LYS166     -0.1314
     41  N         26.3970    7.0410   20.9640 N.am  167  VAL167     -0.1980
     42  CA        27.0110    6.5810   19.7000 C.3   167  VAL167      0.1595
     43  C         25.9360    6.4220   18.6240 C.2   167  VAL167      0.2287
     44  O         26.1210    6.7630   17.4410 O.2   167  VAL167     -0.2864
     45  CB        27.8910    5.3450   19.9480 C.3   167  VAL167      0.0276
     46  CG1       27.1140    4.0790   20.2770 C.3   167  VAL167      0.0022
     47  CG2       28.8460    5.1110   18.7850 C.3   167  VAL167      0.0022
     48  N         23.0590    8.0320   18.2500 N.3   169  ARG169     -0.1182
     49  CA        22.6040    9.3320   17.7570 C.3   169  ARG169      0.1910
     50  C         23.5590    9.8940   16.7040 C.2   169  ARG169      0.2634
     51  O         23.1050   10.4820   15.7100 O.2   169  ARG169     -0.2714
     52  CB        22.3970   10.3690   18.8690 C.2   169  ARG169      0.0007
     53  CG        23.6620   10.8580   19.5400 C.2   169  ARG169      0.0176
     54  CD        23.4860   11.8330   20.6440 C.3   169  ARG169      0.2464
     55  NE        24.7140   11.9680   21.4250 N.pl3 169  ARG169     -0.0815
     56  CZ        25.0420   13.0290   22.1590 C.cat 169  ARG169      0.5349
     57  NH1       24.2560   14.0990   22.2380 N.pl3 169  ARG169      0.1354
     58  NH2       26.1870   13.0290   22.8430 N.pl3 169  ARG169      0.1354
     59  N         24.8440    9.7110   16.9460 N.am  170  ASN170     -0.1972
     60  CA        25.9040   10.1820   16.0360 C.3   170  ASN170      0.1688
     61  C         25.7680    9.4140   14.7170 C.2   170  ASN170      0.2292
     62  O         25.6170   10.0260   13.6440 O.2   170  ASN170     -0.2864
     63  CB        27.2700   10.0890   16.6950 C.3   170  ASN170      0.1181
     64  CG        27.4070   10.8790   17.9820 C.2   170  ASN170      0.2629
     65  OD1       26.6460   11.8170   18.2650 O.2   170  ASN170     -0.2716
     66  ND2       28.4000   10.5020   18.7910 N.am  170  ASN170     -0.0877
     67  N         22.3700   10.3110   12.9660 N.3   173  VAL173     -0.1231
     68  CA        22.4960   11.6300   12.3260 C.3   173  VAL173      0.1692
     69  C         23.3040   11.5280   11.0310 C.2   173  VAL173      0.2592
     70  O         22.7900   11.8340    9.9400 O.2   173  VAL173     -0.2718
     71  CB        23.0510   12.6650   13.3240 C.3   173  VAL173      0.0266
     72  CG1       23.5720   13.9370   12.6600 C.3   173  VAL173      0.0020
     73  CG2       22.0290   13.0260   14.3940 C.3   173  VAL173      0.0020
     74  N         24.5420   11.0980   11.1770 N.am  174  VAL174     -0.1966
     75  CA        25.4790   10.9360   10.0550 C.3   174  VAL174      0.1727
     76  C         24.8420   10.2580    8.8460 C.2   174  VAL174      0.2616
     77  O         24.6160   10.8600    7.7750 O.2   174  VAL174     -0.2715
     78  CB        26.7290   10.2060   10.5970 C.3   174  VAL174      0.0290
     79  CG1       27.5890    9.5530    9.5250 C.3   174  VAL174      0.0023
     80  CG2       27.5660   11.1430   11.4590 C.3   174  VAL174      0.0023
     81  N         24.5430    8.9860    9.0390 N.am  175  LEU175     -0.1977
     82  CA        23.9360    8.1100    8.0310 C.3   175  LEU175      0.1596
     83  C         22.7230    8.7590    7.3770 C.2   175  LEU175      0.2287
     84  O         22.5920    8.8570    6.1410 O.2   175  LEU175     -0.2864
     85  CB        23.6420    6.7730    8.7230 C.3   175  LEU175      0.0297
     86  CG        24.7230    5.7220    8.8580 C.3   175  LEU175      0.0022
     87  CD1       25.0270    5.0850    7.5040 C.3   175  LEU175      0.0001
     88  CD2       26.0000    6.3280    9.4430 C.3   175  LEU175      0.0001
     89  N         21.8860   11.8620    7.2120 N.3   177  SER177     -0.1202
     90  CA        22.1530   13.1300    6.5030 C.3   177  SER177      0.2020
     91  C         22.6680   12.7370    5.1060 C.2   177  SER177      0.2618
     92  O         22.3390   13.2590    4.0140 O.2   177  SER177     -0.2717
     93  CB        23.1320   14.0160    7.2400 C.3   177  SER177      0.2103
     94  OG        22.6790   14.3260    8.5460 O.3   177  SER177     -0.2182
     95  N         23.4890   11.6850    5.2020 N.am  178  ALA178     -0.1979
     96  CA        24.1070   11.0700    4.0130 C.3   178  ALA178      0.1597
     97  C         22.9930   10.6860    3.0350 C.2   178  ALA178      0.2287
     98  O         23.1080   10.9960    1.8350 O.2   178  ALA178     -0.2864
     99  CB        24.9980    9.9080    4.4030 C.3   178  ALA178      0.0319
    100  N         21.7580   13.6070    1.0140 N.3   181  VAL181     -0.1231
    101  CA        22.7710   14.1190    0.0430 C.3   181  VAL181      0.1692
    102  C         22.9160   13.1710   -1.1510 C.2   181  VAL181      0.2591
    103  O         22.7980   13.6200   -2.3190 O.2   181  VAL181     -0.2718
    104  CB        24.0840   14.5520    0.6980 C.3   181  VAL181      0.0266
    105  CG1       25.2490   14.6290   -0.2880 C.3   181  VAL181      0.0020
    106  CG2       23.9320   15.9000    1.3950 C.3   181  VAL181      0.0020
    107  N         23.1460   11.8960   -0.8740 N.am  182  VAL182     -0.1980
    108  CA        23.3070   10.8870   -1.9360 C.3   182  VAL182      0.1595
    109  C         22.0890   10.8920   -2.8620 C.2   182  VAL182      0.2287
    110  O         22.2620   10.9010   -4.0950 O.2   182  VAL182     -0.2864
    111  CB        23.6640    9.5020   -1.3780 C.3   182  VAL182      0.0276
    112  CG1       23.7010    8.4250   -2.4630 C.3   182  VAL182      0.0022
    113  CG2       24.9820    9.5050   -0.6130 C.3   182  VAL182      0.0022
    114  N         26.7350    3.5900   -2.5070 N.3   201  LEU201     -0.1245
    115  CA        26.6110    4.5860   -1.4410 C.3   201  LEU201      0.1561
    116  C         25.4160    4.3070   -0.5340 C.2   201  LEU201      0.2260
    117  O         25.5270    4.1560    0.6990 O.2   201  LEU201     -0.2867
    118  CB        26.5650    5.9610   -2.1240 C.3   201  LEU201      0.0270
    119  CG        27.8940    6.6250   -2.4450 C.3   201  LEU201      0.0019
    120  CD1       28.7460    5.7970   -3.3980 C.3   201  LEU201      0.0001
    121  CD2       27.5950    7.9930   -3.0600 C.3   201  LEU201      0.0001
    122  N         25.8820    1.1790    1.3350 N.3   204  VAL204     -0.1231
    123  CA        26.8830    1.4530    2.3790 C.3   204  VAL204      0.1692
    124  C         26.1210    1.9350    3.6250 C.2   204  VAL204      0.2591
    125  O         26.1970    1.3350    4.7090 O.2   204  VAL204     -0.2718
    126  CB        27.9770    2.4400    1.9370 C.3   204  VAL204      0.0266
    127  CG1       28.7750    3.0210    3.1090 C.3   204  VAL204      0.0020
    128  CG2       28.9720    1.8700    0.9370 C.3   204  VAL204      0.0020
    129  N         25.3920    3.0200    3.3880 N.am  205  LEU205     -0.1980
    130  CA        24.5750    3.6290    4.4480 C.3   205  LEU205      0.1596
    131  C         23.6220    2.5960    5.0450 C.2   205  LEU205      0.2287
    132  O         23.6180    2.4090    6.2730 O.2   205  LEU205     -0.2864
    133  CB        23.8870    4.8630    3.8700 C.3   205  LEU205      0.0297
    134  CG        24.6660    6.1630    3.8220 C.3   205  LEU205      0.0022
    135  CD1       26.1250    5.9770    3.4200 C.3   205  LEU205      0.0001
    136  CD2       23.9810    7.0670    2.7900 C.3   205  LEU205      0.0001
@<TRIPOS>BOND
     1   110   109    2
     2   120   119    1
     3   121   119    1
     4   109   108    1
     5   114   115    1
     6   112   111    1
     7   119   118    1
     8   103   102    2
     9   118   115    1
    10   108   111    1
    11   108   107    1
    12   115   116    1
    13   111   113    1
    14   102   107   am
    15   102   101    1
    16   116   117    2
    17   105   104    1
    18   101   104    1
    19   101   100    1
    20   104   106    1
    21   128   126    1
    22   122   123    1
    23    98    97    2
    24   126   123    1
    25   126   127    1
    26   123   124    1
    27   136   134    1
    28    97    96    1
    29   129   124   am
    30   129   130    1
    31   135   134    1
    32   124   125    2
    33   134   133    1
    34   133   130    1
    35    96    99    1
    36    96    95    1
    37    92    91    2
    38   130   131    1
    39   131   132    2
    40    91    95   am
    41    91    90    1
    42    84    83    2
    43    90    89    1
    44    90    93    1
    45    93    94    1
    46    83    82    1
    47    87    86    1
    48    77    76    2
    49    82    85    1
    50    82    81    1
    51    85    86    1
    52    76    81   am
    53    76    75    1
    54    86    88    1
    55    79    78    1
    56    70    69    2
    57    75    78    1
    58    75    74    1
    59    78    80    1
    60    69    74   am
    61    69    68    1
    62    68    67    1
    63    68    71    1
    64    72    71    1
    65    71    73    1
    66    62    61    2
    67    61    60    1
    68    51    50    2
    69    60    63    1
    70    60    59    1
    71    63    64    1
    72    50    59   am
    73    50    49    1
    74    44    43    2
    75    49    48    1
    76    49    52    1
    77    64    65    2
    78    64    66   am
    79    43    42    1
    80    47    45    1
    81    52    53    2
    82    53    54    1
    83    42    45    1
    84    42    41    1
    85    45    46    1
    86    35    34    2
    87    54    55    1
    88    41    34   am
    89    34    33    1
    90    55    56    2
    91    56    57    1
    92    56    58    1
    93    40    39    1
    94    33    32    1
    95    33    36    1
    96    39    38    1
    97    37    38    1
    98    37    36    1
    99     5     6    1
   100     5     2    1
   101     1     2    1
   102    29    28    2
   103     6     8   ar
   104     6     7   ar
   105     2     3    1
   106     8    10   ar
   107    28    27    1
   108     7     9   ar
   109    10    11   ar
   110     3     4    2
   111     9    11   ar
   112    31    30    1
   113    24    23    2
   114    27    30    1
   115    27    26    1
   116    23    26   am
   117    23    22    1
   118    22    21    1
   119    22    25    1
   120    12    13    1
   121    13    14    1
   122    13    16    1
   123    15    14    2
   124    16    17    1
   125    17    18    1
   126    18    19    1
   127    19    20    1
