@<TRIPOS>MOLECULE
tmp/2breB00.pdb
 117 107 0 0 0
SMALL
GASTEIGER

@<TRIPOS>ATOM
      1  N         29.0120  -19.3040    9.2640 N.3    33  LEU33      -0.1245
      2  CA        28.3610  -18.6540   10.3950 C.3    33  LEU33       0.1561
      3  C         26.8440  -18.6020   10.2540 C.2    33  LEU33       0.2260
      4  O         26.1200  -18.7210   11.2420 O.2    33  LEU33      -0.2867
      5  CB        28.9340  -17.2500   10.5960 C.3    33  LEU33       0.0270
      6  CG        30.4710  -17.2230   10.7270 C.3    33  LEU33       0.0019
      7  CD1       30.8970  -15.8080   11.1030 C.3    33  LEU33       0.0001
      8  CD2       30.9460  -18.2160   11.7810 C.3    33  LEU33       0.0001
      9  N         25.5280  -22.0730   11.0470 N.3    36  ASN36      -0.1225
     10  CA        25.4820  -22.3060   12.4860 C.3    36  ASN36       0.1785
     11  C         24.2650  -21.5760   13.0710 C.2    36  ASN36       0.2597
     12  O         23.5800  -22.1020   13.9460 O.2    36  ASN36      -0.2718
     13  CB        26.7560  -21.7830   13.1750 C.3    36  ASN36       0.1169
     14  CG        27.9540  -22.6980   12.9820 C.2    36  ASN36       0.2627
     15  OD1       27.8700  -23.7280   12.3030 O.2    36  ASN36      -0.2716
     16  ND2       29.0830  -22.3190   13.5820 N.am   36  ASN36      -0.0877
     17  N         24.0010  -20.3630   12.5890 N.am   37  ALA37      -0.1979
     18  CA        22.8560  -19.5860   13.0750 C.3    37  ALA37       0.1597
     19  C         21.5740  -20.3560   12.7850 C.2    37  ALA37       0.2287
     20  O         20.6830  -20.4540   13.6300 O.2    37  ALA37      -0.2864
     21  CB        22.8130  -18.2060   12.3880 C.3    37  ALA37       0.0319
     22  N         21.2420  -23.5770   12.4110 N.3    39  ASP39      -0.1225
     23  CA        21.1480  -24.7330   13.3010 C.3    39  ASP39       0.1805
     24  C         20.6140  -24.3280   14.6620 C.2    39  ASP39       0.2597
     25  O         19.7490  -25.0050   15.2230 O.2    39  ASP39      -0.2718
     26  CB        22.5160  -25.4060   13.4690 C.3    39  ASP39       0.1424
     27  CG        22.9840  -26.1080   12.2100 C.2    39  ASP39       0.3668
     28  OD1       22.1460  -26.3500   11.3030 O.co2  39  ASP39      -0.2456
     29  OD2       24.1940  -26.4260   12.1320 O.co2  39  ASP39      -0.2456
     30  N         21.1320  -23.2220   15.1950 N.am   40  ALA40      -0.1979
     31  CA        20.6860  -22.7310   16.4970 C.3    40  ALA40       0.1597
     32  C         19.1850  -22.4570   16.4660 C.2    40  ALA40       0.2287
     33  O         18.4730  -22.7230   17.4400 O.2    40  ALA40      -0.2864
     34  CB        21.4420  -21.4560   16.8620 C.3    40  ALA40       0.0319
     35  N         17.1500  -25.5670   16.6810 N.3    43  LYS43      -0.1245
     36  CA        17.1070  -26.0540   18.0580 C.3    43  LYS43       0.1561
     37  C         15.9950  -25.4380   18.9030 C.2    43  LYS43       0.2260
     38  O         15.3320  -26.1430   19.6760 O.2    43  LYS43      -0.2867
     39  CB        18.4570  -25.8230   18.7430 C.3    43  LYS43       0.0271
     40  CG        19.5640  -26.7690   18.2750 C.3    43  LYS43       0.0035
     41  CD        20.9190  -26.3290   18.8080 C.3    43  LYS43       0.0206
     42  CE        21.9260  -27.4680   18.8060 C.3    43  LYS43       0.1093
     43  NZ        21.9870  -28.2030   17.5130 N.3    43  LYS43      -0.1314
     44  N         21.4620  -14.0850   15.4850 N.3    78  ASP78      -0.1239
     45  CA        20.3960  -15.0450   15.2630 C.3    78  ASP78       0.1674
     46  C         19.5710  -15.0910   16.5470 C.2    78  ASP78       0.2266
     47  O         20.0650  -14.7280   17.6150 O.2    78  ASP78      -0.2867
     48  CB        20.9480  -16.4420   14.8860 C.3    78  ASP78       0.1410
     49  CG        21.6550  -17.1560   16.0440 C.2    78  ASP78       0.3668
     50  OD1       22.8900  -17.3320   15.9760 O.co2  78  ASP78      -0.2456
     51  OD2       20.9730  -17.5600   17.0100 O.co2  78  ASP78      -0.2456
     52  N         18.5650  -20.7700   19.9060 N.3    81  ILE81      -0.1231
     53  CA        18.4370  -21.2300   21.2810 C.3    81  ILE81       0.1692
     54  C         19.4640  -20.6000   22.2250 C.2    81  ILE81       0.2593
     55  O         19.2820  -20.6020   23.4440 O.2    81  ILE81      -0.2718
     56  CB        18.5250  -22.7780   21.3390 C.3    81  ILE81       0.0266
     57  CG1       18.0610  -23.2850   22.7100 C.3    81  ILE81       0.0019
     58  CG2       19.9450  -23.2330   21.0270 C.3    81  ILE81       0.0020
     59  CD1       17.8520  -24.7960   22.7680 C.3    81  ILE81       0.0001
     60  N         20.5340  -20.0470   21.6660 N.am   82  GLY82      -0.1942
     61  CA        21.5390  -19.4160   22.5000 C.3    82  GLY82       0.2014
     62  C         22.4250  -20.4010   23.2430 C.2    82  GLY82       0.2638
     63  O         22.2860  -21.6220   23.1160 O.2    82  GLY82      -0.2714
     64  N         23.3330  -19.8510   24.0370 N.am   83  MET83      -0.1976
     65  CA        24.2730  -20.6490   24.7990 C.3    83  MET83       0.1605
     66  C         24.4820  -20.0960   26.1890 C.2    83  MET83       0.2287
     67  O         24.7820  -18.9120   26.3520 O.2    83  MET83      -0.2864
     68  CB        25.6230  -20.6780   24.0880 C.3    83  MET83       0.0413
     69  CG        25.6110  -21.3880   22.7530 C.3    83  MET83       0.0598
     70  SD        27.2540  -21.3970   21.9850 S.3    83  MET83      -0.1393
     71  CE        27.1700  -19.8430   20.9800 C.3    83  MET83       0.0692
     72  N         31.2140  -25.5600   24.0770 N.3    91  ASN91      -0.1225
     73  CA        31.0220  -25.5280   22.6160 C.3    91  ASN91       0.1785
     74  C         32.1430  -24.8710   21.8170 C.2    91  ASN91       0.2597
     75  O         32.5500  -25.3680   20.7740 O.2    91  ASN91      -0.2718
     76  CB        29.7350  -24.7650   22.2350 C.3    91  ASN91       0.1169
     77  CG        28.4510  -25.5230   22.5450 C.2    91  ASN91       0.2627
     78  OD1       27.3590  -25.0740   22.1610 O.2    91  ASN91      -0.2716
     79  ND2       28.5600  -26.6500   23.2270 N.am   91  ASN91      -0.0877
     80  N         32.6230  -23.7340   22.2960 N.am   92  LEU92      -0.1980
     81  CA        33.6450  -22.9930   21.5620 C.3    92  LEU92       0.1596
     82  C         35.0720  -23.2380   22.0330 C.2    92  LEU92       0.2287
     83  O         36.0230  -23.0370   21.2770 O.2    92  LEU92      -0.2864
     84  CB        33.3300  -21.4970   21.6440 C.3    92  LEU92       0.0297
     85  CG        31.8710  -21.0920   21.3500 C.3    92  LEU92       0.0022
     86  CD1       31.7520  -19.5730   21.4070 C.3    92  LEU92       0.0001
     87  CD2       31.4290  -21.6190   19.9930 C.3    92  LEU92       0.0001
     88  N         32.6120  -30.0700   11.1960 N.3   120  GLY120     -0.1225
     89  CA        31.8790  -29.5170   12.3230 C.3   120  GLY120      0.1811
     90  C         32.5320  -28.3780   13.0850 C.2   120  GLY120      0.2280
     91  O         32.1360  -28.0820   14.2140 O.2   120  GLY120     -0.2866
     92  N         32.9130  -22.6360   12.5410 N.3   123  PHE123     -0.1241
     93  CA        32.9370  -21.4360   13.3820 C.3   123  PHE123      0.1605
     94  C         34.2920  -20.7330   13.2680 C.2   123  PHE123      0.2264
     95  O         34.3610  -19.5400   12.9950 O.2   123  PHE123     -0.2867
     96  CB        32.6870  -21.8230   14.8460 C.3   123  PHE123      0.0534
     97  CG        32.9410  -20.7100   15.8320 C.ar  123  PHE123     -0.0203
     98  CD1       32.0620  -19.6360   15.9410 C.ar  123  PHE123     -0.0042
     99  CD2       34.0620  -20.7450   16.6630 C.ar  123  PHE123     -0.0042
    100  CE1       32.2860  -18.6100   16.8690 C.ar  123  PHE123     -0.0003
    101  CE2       34.2980  -19.7280   17.5920 C.ar  123  PHE123     -0.0003
    102  CZ        33.4070  -18.6560   17.6970 C.ar  123  PHE123     -0.0000
    103  N         22.1950  -15.4090   19.6940 N.3   170  THR170     -0.1218
    104  CA        23.6240  -15.2230   19.7060 C.3   170  THR170      0.1862
    105  C         24.0790  -14.1930   18.6850 C.2   170  THR170      0.2287
    106  O         23.5060  -14.0660   17.5990 O.2   170  THR170     -0.2866
    107  CB        24.3220  -16.5640   19.4330 C.3   170  THR170      0.1770
    108  OG1       23.9430  -17.5020   20.4490 O.3   170  THR170     -0.2211
    109  CG2       25.8260  -16.4070   19.4400 C.3   170  THR170      0.0375
    110  N         27.6590  -12.8910   16.8350 N.3   172  LEU172     -0.1245
    111  CA        29.0820  -13.0800   16.6050 C.3   172  LEU172      0.1561
    112  C         29.5060  -11.6910   16.1410 C.2   172  LEU172      0.2260
    113  O         29.1160  -11.2450   15.0590 O.2   172  LEU172     -0.2867
    114  CB        29.3680  -14.1060   15.4930 C.3   172  LEU172      0.0270
    115  CG        29.6990  -15.5520   15.9070 C.3   172  LEU172      0.0019
    116  CD1       28.5070  -16.1360   16.6560 C.3   172  LEU172      0.0001
    117  CD2       30.0370  -16.4040   14.6790 C.3   172  LEU172      0.0001
@<TRIPOS>BOND
     1     1     2    1
     2     3     2    1
     3     3     4    2
     4     2     5    1
     5     5     6    1
     6     6     7    1
     7     6     8    1
     8     9    10    1
     9    88    89    1
    10    28    27   ar
    11    29    27   ar
    12    27    26    1
    13    15    14    2
    14    89    90    1
    15    21    18    1
    16    22    23    1
    17    10    11    1
    18    10    13    1
    19    92    93    1
    20    17    11   am
    21    17    18    1
    22    19    18    1
    23    19    20    2
    24    14    13    1
    25    14    16   am
    26    95    94    2
    27    11    12    2
    28    90    91    2
    29    94    93    1
    30    23    26    1
    31    23    24    1
    32    93    96    1
    33    24    30   am
    34    24    25    2
    35   117   115    1
    36    96    97    1
    37    48    45    1
    38    48    49    1
    39   113   112    2
    40    30    31    1
    41    45    44    1
    42    45    46    1
    43   114   115    1
    44   114   111    1
    45    97    98   ar
    46    97    99   ar
    47   115   116    1
    48    98   100   ar
    49    50    49   ar
    50    49    51   ar
    51   112   111    1
    52    32    31    1
    53    32    33    2
    54    31    34    1
    55    46    47    2
    56   111   110    1
    57    99   101   ar
    58    35    36    1
    59   100   102   ar
    60    43    42    1
    61   101   102   ar
    62   106   105    2
    63    36    39    1
    64    36    37    1
    65    40    39    1
    66    40    41    1
    67   105   104    1
    68    42    41    1
    69    37    38    2
    70   107   109    1
    71   107   104    1
    72   107   108    1
    73   103   104    1
    74    52    53    1
    75    87    85    1
    76    75    74    2
    77    71    70    1
    78    58    56    1
    79    83    82    2
    80    53    56    1
    81    53    54    1
    82    56    57    1
    83    85    86    1
    84    85    84    1
    85    81    84    1
    86    81    82    1
    87    81    80    1
    88    60    54   am
    89    60    61    1
    90    74    80   am
    91    74    73    1
    92    70    69    1
    93    78    77    2
    94    54    55    2
    95    76    77    1
    96    76    73    1
    97    61    62    1
    98    77    79   am
    99    73    72    1
   100    57    59    1
   101    69    68    1
   102    63    62    2
   103    62    64   am
   104    64    65    1
   105    68    65    1
   106    65    66    1
   107    66    67    2
