@<TRIPOS>MOLECULE
tmp/2brhA00.pdb
 145 139 0 0 0
SMALL
GASTEIGER

@<TRIPOS>ATOM
      1  N         18.2620   -7.5350    5.4620 N.3    10  LEU10      -0.1231
      2  CA        19.0130   -6.7280    6.4270 C.3    10  LEU10       0.1693
      3  C         19.4190   -7.5530    7.6510 C.2    10  LEU10       0.2593
      4  O         20.4710   -7.2830    8.2560 O.2    10  LEU10      -0.2718
      5  CB        18.1860   -5.5090    6.8890 C.3    10  LEU10       0.0284
      6  CG        18.0790   -4.2110    6.0590 C.3    10  LEU10       0.0019
      7  CD1       18.9570   -4.1730    4.8430 C.3    10  LEU10       0.0001
      8  CD2       16.6430   -3.9470    5.6830 C.3    10  LEU10       0.0001
      9  N         18.5880   -8.5340    8.0120 N.am   11  GLY11      -0.1942
     10  CA        18.7920   -9.3240    9.2170 C.3    11  GLY11       0.2014
     11  C         17.6810  -10.3170    9.5150 C.2    11  GLY11       0.2639
     12  O         16.6840  -10.3680    8.8120 O.2    11  GLY11      -0.2714
     13  N         17.8450  -11.0990   10.5780 N.am   12  GLU12      -0.1961
     14  CA        17.0330  -12.3010   10.7550 C.3    12  GLU12       0.1747
     15  C         15.8400  -12.1740   11.7060 C.2    12  GLU12       0.2582
     16  O         15.1020  -13.1450   11.8900 O.2    12  GLU12      -0.3169
     17  CB        17.9220  -13.4770   11.1990 C.3    12  GLU12       0.0431
     18  CG        17.5190  -14.8410   10.6340 C.3    12  GLU12       0.1163
     19  CD        17.6050  -14.9340    9.1110 C.2    12  GLU12       0.3649
     20  OE1       18.2380  -14.0600    8.4770 O.co2  12  GLU12      -0.2457
     21  OE2       17.0360  -15.8940    8.5410 O.co2  12  GLU12      -0.2457
     22  N         15.6200  -11.0030   12.3000 N.2    13  GLY13      -0.2344
     23  CA        14.5110  -10.8820   13.2270 C.3    13  GLY13       0.1651
     24  C         14.2340  -12.2550   13.8240 C.3    13  GLY13       0.2218
     25  O         14.9400  -13.2230   13.5130 O.3    13  GLY13      -0.1692
     26  N         11.1890  -13.6890   13.9280 N.3    15  TYR15      -0.1241
     27  CA         9.8020  -13.8820   13.5850 C.3    15  TYR15       0.1605
     28  C          9.7870  -14.0560   12.0780 C.2    15  TYR15       0.2264
     29  O          9.2610  -15.0200   11.5340 O.2    15  TYR15      -0.2867
     30  CB         8.9980  -12.6490   14.0030 C.3    15  TYR15       0.0534
     31  CG         9.6910  -11.6870   14.9840 C.ar   15  TYR15      -0.0201
     32  CD1       10.8810  -11.0280   14.6510 C.ar   15  TYR15      -0.0009
     33  CD2        9.1240  -11.3940   16.2250 C.ar   15  TYR15      -0.0009
     34  CE1       11.4930  -10.1420   15.5420 C.ar   15  TYR15       0.0417
     35  CE2        9.7290  -10.5070   17.1110 C.ar   15  TYR15       0.0417
     36  CZ        10.9100   -9.8780   16.7660 C.ar   15  TYR15       0.1957
     37  OH        11.4960   -8.9970   17.6600 O.3    15  TYR15      -0.2866
     38  N         13.9220   -9.1970    7.7680 N.3    18  VAL18      -0.1245
     39  CA        13.6510   -7.7930    7.4120 C.3    18  VAL18       0.1561
     40  C         14.3610   -7.5870    6.1140 C.2    18  VAL18       0.2260
     41  O         15.5510   -7.9120    6.0270 O.2    18  VAL18      -0.2867
     42  CB        14.2970   -6.8010    8.4140 C.3    18  VAL18       0.0252
     43  CG1       13.7560   -5.4020    8.2040 C.3    18  VAL18       0.0019
     44  CG2       14.0900   -7.2710    9.8570 C.3    18  VAL18       0.0019
     45  N         12.4630   -0.6660    4.5940 N.3    31  ALA31      -0.1245
     46  CA        12.6600   -1.9470    5.2280 C.3    31  ALA31       0.1562
     47  C         11.3180   -2.6260    5.2730 C.2    31  ALA31       0.2260
     48  O         10.2970   -1.9790    5.5470 O.2    31  ALA31      -0.2867
     49  CB        13.2470   -1.7740    6.6270 C.3    31  ALA31       0.0290
     50  N          9.2190   -5.7290    6.9970 N.3    33  LYS33      -0.1245
     51  CA         9.3090   -6.6480    8.1290 C.3    33  LYS33       0.1561
     52  C          8.2300   -7.7030    7.9540 C.2    33  LYS33       0.2260
     53  O          7.0450   -7.3550    7.9260 O.2    33  LYS33      -0.2867
     54  CB         9.1640   -5.8960    9.4690 C.3    33  LYS33       0.0271
     55  CG         9.0350   -6.8100   10.7310 C.3    33  LYS33       0.0035
     56  CD         8.4710   -6.0690   11.9580 C.3    33  LYS33       0.0206
     57  CE         8.8650   -6.7670   13.2630 C.3    33  LYS33       0.1093
     58  NZ         8.7290   -5.9200   14.4800 N.3    33  LYS33      -0.1314
     59  N         11.2140    5.3540   14.2700 N.3    54  VAL54      -0.1245
     60  CA        11.0510    4.7040   12.9840 C.3    54  VAL54       0.1561
     61  C          9.6370    4.8890   12.4110 C.2    54  VAL54       0.2260
     62  O          8.6490    4.4540   12.9960 O.2    54  VAL54      -0.2867
     63  CB        11.3990    3.2010   13.0720 C.3    54  VAL54       0.0252
     64  CG1       11.0490    2.4640   11.7590 C.3    54  VAL54       0.0019
     65  CG2       12.8690    3.0390   13.4290 C.3    54  VAL54       0.0019
     66  N          8.4380    0.0980    6.8940 N.3    70  LEU70      -0.1231
     67  CA         9.0660    0.9310    7.9080 C.3    70  LEU70       0.1693
     68  C         10.2580    1.7170    7.3620 C.2    70  LEU70       0.2592
     69  O         10.8850    1.3030    6.3790 O.2    70  LEU70      -0.2718
     70  CB         9.5800    0.0090    9.0120 C.3    70  LEU70       0.0284
     71  CG         8.4990   -0.8230    9.7240 C.3    70  LEU70       0.0019
     72  CD1        9.0970   -2.0340   10.4870 C.3    70  LEU70       0.0001
     73  CD2        7.7110    0.0920   10.6110 C.3    70  LEU70       0.0001
     74  N         10.6140    2.8180    8.0050 N.am   71  GLU71      -0.1966
     75  CA        11.8350    3.5610    7.6410 C.3    71  GLU71       0.1733
     76  C         13.0440    2.6520    7.5690 C.2    71  GLU71       0.2616
     77  O         13.3290    1.8660    8.4910 O.2    71  GLU71      -0.2715
     78  CB        12.1290    4.6180    8.6830 C.3    71  GLU71       0.0429
     79  CG        13.0090    5.7770    8.2660 C.3    71  GLU71       0.1163
     80  CD        13.1070    6.8160    9.3950 C.2    71  GLU71       0.3649
     81  OE1       14.1280    7.4940    9.5460 O.co2  71  GLU71      -0.2457
     82  OE2       12.1780    6.9480   10.1860 O.co2  71  GLU71      -0.2457
     83  N         13.7540    2.7530    6.4640 N.am   72  TYR72      -0.1960
     84  CA        15.0760    2.1590    6.3330 C.3    72  TYR72       0.1771
     85  C         16.1050    3.0250    7.0540 C.2    72  TYR72       0.2620
     86  O         16.1940    4.2820    6.8640 O.2    72  TYR72      -0.2715
     87  CB        15.4420    2.0340    4.8530 C.3    72  TYR72       0.0574
     88  CG        16.8300    1.5510    4.6140 C.ar   72  TYR72      -0.0198
     89  CD1       17.3090    0.4390    5.2720 C.ar   72  TYR72      -0.0009
     90  CD2       17.6860    2.2290    3.7240 C.ar   72  TYR72      -0.0009
     91  CE1       18.5370   -0.0390    5.0140 C.ar   72  TYR72       0.0417
     92  CE2       18.9520    1.7770    3.4960 C.ar   72  TYR72       0.0417
     93  CZ        19.3710    0.6180    4.1320 C.ar   72  TYR72       0.1957
     94  OH        20.6560    0.1260    3.9770 O.3    72  TYR72      -0.2866
     95  N         16.8770    2.3570    7.8890 N.am   73  CYS73      -0.1954
     96  CA        17.8680    3.0160    8.7100 C.3    73  CYS73       0.1843
     97  C         19.2170    2.4770    8.3490 C.2    73  CYS73       0.2626
     98  O         19.5850    1.4260    8.8270 O.2    73  CYS73      -0.2714
     99  CB        17.5650    2.7530   10.2010 C.3    73  CYS73       0.0997
    100  SG        16.1000    3.6120   10.7540 S.3    73  CYS73      -0.0797
    101  N         19.9580    3.1860    7.5050 N.am   74  SER74      -0.1936
    102  CA        21.1820    2.6000    6.9150 C.3    74  SER74       0.2055
    103  C         22.3480    2.5460    7.8590 C.2    74  SER74       0.2644
    104  O         23.2910    1.7770    7.6290 O.2    74  SER74      -0.2714
    105  CB        21.5770    3.2670    5.6090 C.3    74  SER74       0.2130
    106  OG        22.0590    4.5510    5.8350 O.3    74  SER74      -0.2179
    107  N         22.2700    3.3070    8.9470 N.am   75  GLY75      -0.1939
    108  CA        23.2690    3.2120   10.0230 C.3    75  GLY75       0.2014
    109  C         23.3010    1.9280   10.8520 C.2    75  GLY75       0.2639
    110  O         24.2050    1.7220   11.6440 O.2    75  GLY75      -0.2714
    111  N         22.3140    1.0580   10.6720 N.am   76  GLY76      -0.1939
    112  CA        22.1430   -0.1110   11.5020 C.3    76  GLY76       0.2014
    113  C         21.8300    0.2400   12.9560 C.2    76  GLY76       0.2638
    114  O         21.3230    1.2940   13.2580 O.2    76  GLY76      -0.2714
    115  N         22.1990   -0.6660   13.8430 N.am   77  GLU77      -0.1977
    116  CA        21.9040   -0.6070   15.2590 C.3    77  GLU77       0.1602
    117  C         22.9210    0.1370   16.0730 C.2    77  GLU77       0.2287
    118  O         24.0910   -0.0340   15.8970 O.2    77  GLU77      -0.2864
    119  CB        21.8040   -2.0130   15.8340 C.3    77  GLU77       0.0415
    120  CG        20.7410   -2.8500   15.1740 C.3    77  GLU77       0.1163
    121  CD        20.7220   -4.2500   15.7020 C.2    77  GLU77       0.3649
    122  OE1       19.9070   -5.0480   15.1890 O.co2  77  GLU77      -0.2457
    123  OE2       21.5190   -4.5830   16.6160 O.co2  77  GLU77      -0.2457
    124  N         18.0260    2.3160   16.1640 N.3   123  LEU123     -0.1245
    125  CA        18.5770    2.2020   14.8360 C.3   123  LEU123      0.1561
    126  C         19.0770    3.5850   14.5060 C.2   123  LEU123      0.2260
    127  O         18.7150    4.5810   15.1670 O.2   123  LEU123     -0.2867
    128  CB        17.5240    1.7790   13.7960 C.3   123  LEU123      0.0270
    129  CG        16.9350    0.3910   14.0040 C.3   123  LEU123      0.0019
    130  CD1       16.0760   -0.0930   12.8310 C.3   123  LEU123      0.0001
    131  CD2       18.0860   -0.5770   14.3050 C.3   123  LEU123      0.0001
    132  N         12.7590    1.7600   17.6070 N.3   133  SER133     -0.1202
    133  CA        12.3590    0.7130   16.6420 C.3   133  SER133      0.2020
    134  C         11.7530   -0.4660   17.3560 C.2   133  SER133      0.2618
    135  O         12.1910   -0.7980   18.4540 O.2   133  SER133     -0.2717
    136  CB        13.6020    0.2400   15.8340 C.3   133  SER133      0.2103
    137  OG        13.4680   -1.0160   15.1920 O.3   133  SER133     -0.2182
    138  N         10.7370   -1.0660   16.7260 N.am  134  ASP134     -0.1973
    139  CA        10.1040   -2.3160   17.1520 C.3   134  ASP134      0.1709
    140  C          9.1340   -2.0830   18.2740 C.2   134  ASP134      0.2293
    141  O          9.5070   -2.0760   19.4560 O.2   134  ASP134     -0.2864
    142  CB        11.1230   -3.4110   17.5320 C.3   134  ASP134      0.1436
    143  CG        10.5020   -4.8150   17.5500 C.2   134  ASP134      0.3671
    144  OD1       11.2090   -5.8410   17.6220 O.co2 134  ASP134     -0.2456
    145  OD2        9.3130   -5.0110   17.5420 O.co2 134  ASP134     -0.2456
@<TRIPOS>BOND
     1    92    90   ar
     2    92    93   ar
     3    90    88   ar
     4    94    93    1
     5    93    91   ar
     6    45    46    1
     7    88    87    1
     8    88    89   ar
     9     7     6    1
    10    87    84    1
    11    91    89   ar
    12    46    47    1
    13    46    49    1
    14    47    48    2
    15     1     2    1
    16   105   106    1
    17   105   102    1
    18     8     6    1
    19    41    40    2
    20     6     5    1
    21    40    39    1
    22    84    83    1
    23    84    85    1
    24    69    68    2
    25     2     5    1
    26     2     3    1
    27    83    76   am
    28    86    85    2
    29    66    67    1
    30   102   101    1
    31   102   103    1
    32    50    51    1
    33    85    95   am
    34    68    67    1
    35    68    74   am
    36    39    38    1
    37    39    42    1
    38   101    97   am
    39    76    75    1
    40    76    77    2
    41   104   103    2
    42    75    74    1
    43    75    78    1
    44     3     9   am
    45     3     4    2
    46   103   107   am
    47    95    96    1
    48    67    70    1
    49    53    52    2
    50    52    51    1
    51     9    10    1
    52    51    54    1
    53    43    42    1
    54    79    78    1
    55    79    80    1
    56    97    96    1
    57    97    98    2
    58    42    44    1
    59    20    19   ar
    60    21    19   ar
    61    96    99    1
    62    12    11    2
    63   107   108    1
    64    70    71    1
    65    19    18    1
    66    10    11    1
    67    80    81   ar
    68    80    82   ar
    69    54    55    1
    70    11    13   am
    71    71    72    1
    72    71    73    1
    73   108   109    1
    74    99   100    1
    75    13    14    1
    76    18    17    1
    77   111   109   am
    78   111   112    1
    79    55    56    1
    80    14    17    1
    81    14    15    1
    82   109   110    2
    83   112   113    1
    84    29    28    2
    85    15    16    1
    86    15    22    2
    87    64    63    1
    88    16    25    1
    89    56    57    1
    90    28    27    1
    91    22    23    1
    92    61    60    1
    93    61    62    2
    94   130   129    1
    95   113   114    2
    96   113   115   am
    97    60    63    1
    98    60    59    1
    99    63    65    1
   100    23    24    1
   101    57    58    1
   102    25    24    1
   103    27    26    1
   104    27    30    1
   105   128   129    1
   106   128   125    1
   107   115   116    1
   108    30    31    1
   109   129   131    1
   110   126   125    1
   111   126   127    2
   112    32    31   ar
   113    32    34   ar
   114   125   124    1
   115    31    33   ar
   116   120   121    1
   117   120   119    1
   118   122   121   ar
   119   137   136    1
   120   116   119    1
   121   116   117    1
   122    34    36   ar
   123   121   123   ar
   124   136   133    1
   125   118   117    2
   126    33    35   ar
   127   133   134    1
   128   133   132    1
   129   138   139    1
   130   138   134   am
   131    36    35   ar
   132    36    37    1
   133   139   142    1
   134   139   140    1
   135   134   135    2
   136   142   143    1
   137   145   143   ar
   138   143   144   ar
   139   140   141    2
