@<TRIPOS>MOLECULE
tmp/2brkA00.pdb
 141 136 0 0 0
SMALL
GASTEIGER

@<TRIPOS>ATOM
      1  N         18.6620   19.4810    3.6310 N.3    21  LEU21      -0.1245
      2  CA        19.8920   19.7610    2.8820 C.3    21  LEU21       0.1561
      3  C         19.6510   19.7700    1.3670 C.2    21  LEU21       0.2260
      4  O         18.7920   19.0530    0.8510 O.2    21  LEU21      -0.2867
      5  CB        20.9710   18.7430    3.2450 C.3    21  LEU21       0.0270
      6  CG        21.9270   19.0680    4.3720 C.3    21  LEU21       0.0019
      7  CD1       22.8970   17.8740    4.4000 C.3    21  LEU21       0.0001
      8  CD2       22.6830   20.3420    4.0300 C.3    21  LEU21       0.0001
      9  N         16.9100   12.2610    8.5930 N.3    22  MET22      -0.1230
     10  CA        18.3530   12.5300    8.5740 C.3    22  MET22       0.1702
     11  C         18.7130   13.7730    9.4430 C.2    22  MET22       0.2592
     12  O         18.3520   13.8360   10.6240 O.2    22  MET22      -0.2718
     13  CB        18.8160   12.7080    7.1210 C.3    22  MET22       0.0401
     14  CG        18.1620   11.7600    6.1300 C.3    22  MET22       0.0596
     15  SD        18.8970   11.8340    4.4660 S.3    22  MET22      -0.1393
     16  CE        19.2930   13.6010    4.2720 C.3    22  MET22       0.0692
     17  N         19.4310   14.7400    8.8640 N.am   23  VAL23      -0.1980
     18  CA        19.7020   16.0260    9.5140 C.3    23  VAL23       0.1595
     19  C         18.7130   17.1210    9.0600 C.2    23  VAL23       0.2287
     20  O         18.5670   17.3850    7.8590 O.2    23  VAL23      -0.2864
     21  CB        21.1620   16.4620    9.2910 C.3    23  VAL23       0.0276
     22  CG1       22.0990   15.2950    9.6000 C.3    23  VAL23       0.0022
     23  CG2       21.4000   16.9740    7.8720 C.3    23  VAL23       0.0022
     24  N         28.1930   16.1580   14.7750 N.3   373  LEU373     -0.1231
     25  CA        28.4890   15.5350   13.4950 C.3   373  LEU373      0.1693
     26  C         27.4630   15.9930   12.4880 C.2   373  LEU373      0.2591
     27  O         27.8280   16.3510   11.3850 O.2   373  LEU373     -0.2718
     28  CB        28.4830   14.0130   13.5850 C.3   373  LEU373      0.0284
     29  CG        29.6720   13.3830   14.3110 C.3   373  LEU373      0.0019
     30  CD1       29.5430   11.8850   14.4140 C.3   373  LEU373      0.0001
     31  CD2       30.9560   13.7240   13.6360 C.3   373  LEU373      0.0001
     32  N         26.1950   16.0350   12.9010 N.am  374  ALA374     -0.1980
     33  CA        25.1010   16.4600   12.0420 C.3   374  ALA374      0.1597
     34  C         25.2550   17.9190   11.6430 C.2   374  ALA374      0.2287
     35  O         24.9840   18.2760   10.4990 O.2   374  ALA374     -0.2864
     36  CB        23.7680   16.2510   12.7230 C.3   374  ALA374      0.0319
     37  N         28.0920   19.6430   11.5470 N.3   376  ALA376     -0.1231
     38  CA        29.2210   19.7320   10.6490 C.3   376  ALA376      0.1694
     39  C         28.8200   19.2550    9.2320 C.2   376  ALA376      0.2591
     40  O         29.2880   19.7980    8.2290 O.2   376  ALA376     -0.2718
     41  CB        30.3870   18.9220   11.1900 C.3   376  ALA376      0.0304
     42  N         27.9380   18.2540    9.1570 N.am  377  ALA377     -0.1980
     43  CA        27.5090   17.7030    7.8730 C.3   377  ALA377      0.1597
     44  C         26.8090   18.8150    7.1040 C.2   377  ALA377      0.2287
     45  O         27.1180   19.0770    5.9500 O.2   377  ALA377     -0.2864
     46  CB        26.5610   16.5310    8.0710 C.3   377  ALA377      0.0319
     47  N         29.0060   21.4130    5.5300 N.3   380  THR380     -0.1218
     48  CA        29.7340   20.9410    4.3720 C.3   380  THR380      0.1862
     49  C         28.9740   21.3380    3.1040 C.2   380  THR380      0.2287
     50  O         29.5810   21.5930    2.0680 O.2   380  THR380     -0.2866
     51  CB        29.9000   19.4070    4.4360 C.3   380  THR380      0.1770
     52  OG1       30.8580   19.0740    5.4420 O.3   380  THR380     -0.2211
     53  CG2       30.5430   18.8480    3.1740 C.3   380  THR380      0.0375
     54  N         37.5680   12.4830   13.5240 N.3   405  ILE405     -0.1231
     55  CA        36.5950   12.7720   12.4980 C.3   405  ILE405      0.1692
     56  C         36.5570   14.2640   12.1480 C.2   405  ILE405      0.2591
     57  O         36.7560   14.6170   10.9760 O.2   405  ILE405     -0.2718
     58  CB        35.1940   12.2340   12.8810 C.3   405  ILE405      0.0266
     59  CG1       35.2690   10.7270   13.1510 C.3   405  ILE405      0.0019
     60  CG2       34.1900   12.4350   11.7660 C.3   405  ILE405      0.0020
     61  CD1       35.0500   10.3840   14.5910 C.3   405  ILE405      0.0001
     62  N         36.3120   15.1430   13.1230 N.am  406  LEU406     -0.1980
     63  CA        36.0590   16.5490   12.7750 C.3   406  LEU406      0.1596
     64  C         37.2900   17.2040   12.1910 C.2   406  LEU406      0.2287
     65  O         37.2190   17.8480   11.1730 O.2   406  LEU406     -0.2864
     66  CB        35.5050   17.3650   13.9410 C.3   406  LEU406      0.0297
     67  CG        34.0580   17.0460   14.3030 C.3   406  LEU406      0.0022
     68  CD1       33.6370   17.8970   15.4960 C.3   406  LEU406      0.0001
     69  CD2       33.0660   17.2390   13.1490 C.3   406  LEU406      0.0001
     70  N         38.2560   15.4600    8.5920 N.3   409  HIS409     -0.1226
     71  CA        37.4280   15.8340    7.4850 C.3   409  HIS409      0.1752
     72  C         37.6140   17.2990    7.1160 C.2   409  HIS409      0.2596
     73  O         37.6220   17.6640    5.9340 O.2   409  HIS409     -0.2718
     74  CB        35.9750   15.6290    7.8030 C.3   409  HIS409      0.0759
     75  CG        35.1060   15.6060    6.5910 C.ar  409  HIS409      0.0818
     76  ND1       35.2120   14.6280    5.6260 N.ar  409  HIS409     -0.2268
     77  CD2       34.1190   16.4370    6.1780 C.ar  409  HIS409      0.1154
     78  CE1       34.3050   14.8420    4.6850 C.ar  409  HIS409      0.1986
     79  NE2       33.6380   15.9410    4.9900 N.ar  409  HIS409     -0.2212
     80  N         37.7150   18.1670    8.1150 N.am  410  PHE410     -0.1976
     81  CA        37.7440   19.5620    7.7450 C.3   410  PHE410      0.1639
     82  C         39.0770   20.0440    7.1860 C.2   410  PHE410      0.2290
     83  O         39.0680   20.8100    6.2510 O.2   410  PHE410     -0.2864
     84  CB        37.0820   20.4280    8.7900 C.3   410  PHE410      0.0560
     85  CG        35.5710   20.4070    8.6600 C.ar  410  PHE410     -0.0200
     86  CD1       34.7910   19.7110    9.5580 C.ar  410  PHE410     -0.0042
     87  CD2       34.9360   21.0330    7.5740 C.ar  410  PHE410     -0.0042
     88  CE1       33.4240   19.6810    9.4170 C.ar  410  PHE410     -0.0003
     89  CE2       33.5610   21.0090    7.4430 C.ar  410  PHE410     -0.0003
     90  CZ        32.8100   20.3400    8.3680 C.ar  410  PHE410     -0.0000
     91  N         24.9110    6.9870   11.7880 N.3   473  LEU473     -0.1231
     92  CA        24.7920    8.1570   10.9310 C.3   473  LEU473      0.1693
     93  C         25.3590    7.8870    9.5400 C.2   473  LEU473      0.2593
     94  O         25.3880    8.7890    8.7290 O.2   473  LEU473     -0.2718
     95  CB        25.5360    9.3440   11.5420 C.3   473  LEU473      0.0284
     96  CG        24.9250   10.0170   12.7660 C.3   473  LEU473      0.0019
     97  CD1       25.8260   11.1610   13.1860 C.3   473  LEU473      0.0001
     98  CD2       23.5400   10.5380   12.4920 C.3   473  LEU473      0.0001
     99  N         25.8200    6.6610    9.2860 N.am  474  GLY474     -0.1942
    100  CA        26.3430    6.2840    7.9950 C.3   474  GLY474      0.2014
    101  C         27.6790    6.8800    7.6400 C.2   474  GLY474      0.2639
    102  O         27.9880    7.0640    6.4610 O.2   474  GLY474     -0.2714
    103  N         28.5030    7.1590    8.6360 N.am  475  VAL475     -0.1963
    104  CA        29.8080    7.7230    8.3520 C.3   475  VAL475      0.1712
    105  C         30.8820    6.6670    8.5240 C.2   475  VAL475      0.2458
    106  O         30.7780    5.7930    9.3710 O.2   475  VAL475     -0.2730
    107  CB        30.1220    9.0410    9.1730 C.3   475  VAL475      0.0289
    108  CG1       28.9470    9.5210    9.9390 C.3   475  VAL475      0.0023
    109  CG2       31.2900    8.8840   10.0570 C.3   475  VAL475      0.0023
    110  N         31.9410    6.7500    7.7400 N.am  476  PRO476     -0.2727
    111  CA        32.9930    5.7420    7.8330 C.3   476  PRO476      0.1402
    112  C         33.3910    5.4630    9.2890 C.2   476  PRO476      0.2269
    113  O         33.1700    6.3230   10.1490 O.2   476  PRO476     -0.2865
    114  CB        34.1270    6.3570    7.0320 C.3   476  PRO476      0.0296
    115  CG        33.3830    7.1390    5.9770 C.3   476  PRO476      0.0237
    116  CD        32.2310    7.7690    6.7170 C.3   476  PRO476      0.0939
    117  N         39.0870    6.8280    9.2330 N.3   481  TRP481     -0.1241
    118  CA        39.5190    8.1590    9.6690 C.3   481  TRP481      0.1605
    119  C         40.9860    8.2040   10.0290 C.2   481  TRP481      0.2264
    120  O         41.6510    9.2230    9.8480 O.2   481  TRP481     -0.2867
    121  CB        38.6380    8.6740   10.8250 C.3   481  TRP481      0.0550
    122  CG        37.2560    8.9030   10.3520 C.ar  481  TRP481      0.0003
    123  CD1       36.1750    8.1520   10.6150 C.ar  481  TRP481      0.0946
    124  CD2       36.8220    9.9400    9.4620 C.ar  481  TRP481      0.0152
    125  NE1       35.0740    8.6570    9.9610 N.ar  481  TRP481     -0.2442
    126  CE2       35.4530    9.7570    9.2420 C.ar  481  TRP481      0.0810
    127  CE3       37.4610   11.0210    8.8370 C.ar  481  TRP481      0.0012
    128  CZ2       34.7080   10.5970    8.4340 C.ar  481  TRP481      0.0191
    129  CZ3       36.7130   11.8610    8.0250 C.ar  481  TRP481      0.0001
    130  CH2       35.3590   11.6470    7.8360 C.ar  481  TRP481      0.0015
    131  N         42.6920    8.1980    6.3780 N.3   484  ARG484     -0.1245
    132  CA        42.5370    9.5460    5.8280 C.3   484  ARG484      0.1563
    133  C         43.4260   10.5710    6.5080 C.2   484  ARG484      0.2260
    134  O         43.9670   11.4430    5.8520 O.2   484  ARG484     -0.2867
    135  CB        41.0920   10.0030    5.9470 C.3   484  ARG484      0.0307
    136  CG        40.2270    9.4420    4.8770 C.3   484  ARG484      0.0489
    137  CD        38.7660    9.7690    5.0540 C.3   484  ARG484      0.2205
    138  NE        37.9460    8.8960    4.2250 N.pl3 484  ARG484     -0.0865
    139  CZ        36.6520    9.0480    4.0480 C.cat 484  ARG484      0.5346
    140  NH1       36.0070   10.0360    4.6530 N.pl3 484  ARG484      0.1354
    141  NH2       35.9940    8.2030    3.2740 N.pl3 484  ARG484      0.1354
@<TRIPOS>BOND
     1     4     3    2
     2     3     2    1
     3    50    49    2
     4     2     5    1
     5     2     1    1
     6    49    48    1
     7    53    51    1
     8     5     6    1
     9   141   139    1
    10     8     6    1
    11   139   138    2
    12   139   140    1
    13   138   137    1
    14    16    15    1
    15     6     7    1
    16    48    51    1
    17    48    47    1
    18    51    52    1
    19    15    14    1
    20    78    79   ar
    21    78    76   ar
    22   136   137    1
    23   136   135    1
    24    79    77   ar
    25    76    75   ar
    26   132   135    1
    27   132   131    1
    28   132   133    1
    29   134   133    2
    30    73    72    2
    31    45    44    2
    32   115   116    1
    33   115   114    1
    34    14    13    1
    35    77    75   ar
    36    83    82    2
    37   102   101    2
    38    75    74    1
    39   116   110    1
    40   114   111    1
    41    44    43    1
    42    72    71    1
    43    72    80   am
    44    13    10    1
    45    82    81    1
    46    89    87   ar
    47    89    90   ar
    48    71    74    1
    49    71    70    1
    50    87    85   ar
    51   101   100    1
    52   101   103   am
    53   110   111    1
    54   110   105   am
    55    81    80    1
    56    81    84    1
    57   111   112    1
    58   130   129   ar
    59   130   128   ar
    60    20    19    2
    61    23    21    1
    62    43    46    1
    63    43    42    1
    64   100    99    1
    65   129   127   ar
    66    40    39    2
    67   104   105    1
    68   104   103    1
    69   104   107    1
    70    90    88   ar
    71   128   126   ar
    72   105   106    2
    73    10     9    1
    74    10    11    1
    75    85    84    1
    76    85    86   ar
    77    94    93    2
    78   127   124   ar
    79    17    11   am
    80    17    18    1
    81    19    18    1
    82    42    39   am
    83   107   108    1
    84   107   109    1
    85    39    38    1
    86   117   118    1
    87   126   124   ar
    88   126   125   ar
    89    99    93   am
    90   112   113    2
    91    21    18    1
    92    21    22    1
    93    88    86   ar
    94    11    12    2
    95   124   122   ar
    96    93    92    1
    97   118   119    1
    98   118   121    1
    99   120   119    2
   100   125   123   ar
   101   122   123   ar
   102   122   121    1
   103    35    34    2
   104    38    41    1
   105    38    37    1
   106    92    95    1
   107    92    91    1
   108    57    56    2
   109    65    64    2
   110    27    26    2
   111    95    96    1
   112    34    33    1
   113    60    58    1
   114    33    36    1
   115    33    32    1
   116    56    55    1
   117    56    62   am
   118    64    63    1
   119    26    32   am
   120    26    25    1
   121    98    96    1
   122    55    58    1
   123    55    54    1
   124    96    97    1
   125    63    62    1
   126    63    66    1
   127    58    59    1
   128    69    67    1
   129    59    61    1
   130    25    28    1
   131    25    24    1
   132    28    29    1
   133    31    29    1
   134    66    67    1
   135    67    68    1
   136    29    30    1
