@<TRIPOS>MOLECULE
tmp/2brlA00.pdb
 141 136 0 0 0
SMALL
GASTEIGER

@<TRIPOS>ATOM
      1  N         18.6950   19.6030    3.7540 N.3    21  LEU21      -0.1245
      2  CA        19.9270   19.9650    3.0350 C.3    21  LEU21       0.1561
      3  C         19.7620   20.0480    1.5080 C.2    21  LEU21       0.2260
      4  O         18.9590   19.3320    0.9020 O.2    21  LEU21      -0.2867
      5  CB        21.0640   19.0060    3.4060 C.3    21  LEU21       0.0270
      6  CG        21.9760   19.3720    4.5560 C.3    21  LEU21       0.0019
      7  CD1       23.0180   18.2390    4.5860 C.3    21  LEU21       0.0001
      8  CD2       22.6590   20.6940    4.2480 C.3    21  LEU21       0.0001
      9  N         17.2160   12.2200    8.7470 N.3    22  MET22      -0.1230
     10  CA        18.6230   12.6290    8.6920 C.3    22  MET22       0.1702
     11  C         18.8460   13.9380    9.4980 C.2    22  MET22       0.2592
     12  O         18.3070   14.0900   10.6040 O.2    22  MET22      -0.2718
     13  CB        19.0640   12.7890    7.2240 C.3    22  MET22       0.0401
     14  CG        18.1960   12.0700    6.2070 C.3    22  MET22       0.0596
     15  SD        18.9210   12.0490    4.5430 S.3    22  MET22      -0.1393
     16  CE        19.6330   13.7220    4.3440 C.3    22  MET22       0.0692
     17  N         19.6430   14.8590    8.9460 N.am   23  VAL23      -0.1980
     18  CA        19.8340   16.1900    9.5120 C.3    23  VAL23       0.1595
     19  C         18.8060   17.2100    8.9770 C.2    23  VAL23       0.2287
     20  O         18.6320   17.3680    7.7580 O.2    23  VAL23      -0.2864
     21  CB        21.2780   16.6910    9.2730 C.3    23  VAL23       0.0276
     22  CG1       22.2690   15.5690    9.5600 C.3    23  VAL23       0.0022
     23  CG2       21.4840   17.2170    7.8530 C.3    23  VAL23       0.0022
     24  N         28.2660   16.1950   14.8870 N.3   373  LEU373     -0.1231
     25  CA        28.6150   15.5750   13.6170 C.3   373  LEU373      0.1693
     26  C         27.6040   16.0430   12.5910 C.2   373  LEU373      0.2591
     27  O         27.9820   16.4520   11.4980 O.2   373  LEU373     -0.2718
     28  CB        28.6020   14.0520   13.6930 C.3   373  LEU373      0.0284
     29  CG        29.8090   13.4190   14.3720 C.3   373  LEU373      0.0019
     30  CD1       29.6340   11.9260   14.4920 C.3   373  LEU373      0.0001
     31  CD2       31.0930   13.7460   13.6700 C.3   373  LEU373      0.0001
     32  N         26.3330   16.0520   12.9870 N.am  374  ALA374     -0.1980
     33  CA        25.2620   16.4600   12.1150 C.3   374  ALA374      0.1597
     34  C         25.4960   17.8980   11.6880 C.2   374  ALA374      0.2287
     35  O         25.3250   18.2460   10.5120 O.2   374  ALA374     -0.2864
     36  CB        23.9290   16.3280   12.8250 C.3   374  ALA374      0.0319
     37  N         28.2460   19.6650   11.6410 N.3   376  ALA376     -0.1231
     38  CA        29.3760   19.8160   10.7600 C.3   376  ALA376      0.1694
     39  C         29.0280   19.3310    9.3280 C.2   376  ALA376      0.2591
     40  O         29.5980   19.8220    8.3470 O.2   376  ALA376     -0.2718
     41  CB        30.5940   19.0740   11.3080 C.3   376  ALA376      0.0304
     42  N         28.0970   18.3770    9.2250 N.am  377  ALA377     -0.1980
     43  CA        27.6650   17.8290    7.9410 C.3   377  ALA377      0.1597
     44  C         26.9500   18.9170    7.1480 C.2   377  ALA377      0.2287
     45  O         27.2840   19.1660    5.9860 O.2   377  ALA377     -0.2864
     46  CB        26.7430   16.6360    8.1360 C.3   377  ALA377      0.0319
     47  N         29.1680   21.4900    5.6890 N.3   380  THR380     -0.1218
     48  CA        29.8900   20.9920    4.5390 C.3   380  THR380      0.1862
     49  C         29.1310   21.3970    3.2690 C.2   380  THR380      0.2287
     50  O         29.7450   21.7400    2.2600 O.2   380  THR380     -0.2866
     51  CB        30.0750   19.4580    4.6630 C.3   380  THR380      0.1770
     52  OG1       31.4450   19.1740    4.9890 O.3   380  THR380     -0.2211
     53  CG2       29.8600   18.7200    3.3420 C.3   380  THR380      0.0375
     54  N         37.7400   12.4960   13.4980 N.3   405  ILE405     -0.1231
     55  CA        36.7670   12.7920   12.4700 C.3   405  ILE405      0.1692
     56  C         36.7620   14.2920   12.1360 C.2   405  ILE405      0.2591
     57  O         37.0640   14.6680   11.0080 O.2   405  ILE405     -0.2718
     58  CB        35.3440   12.3380   12.9150 C.3   405  ILE405      0.0266
     59  CG1       35.3090   10.8320   13.1580 C.3   405  ILE405      0.0019
     60  CG2       34.2760   12.6500   11.8660 C.3   405  ILE405      0.0020
     61  CD1       34.6070   10.4860   14.4250 C.3   405  ILE405      0.0001
     62  N         36.4270   15.1550   13.0980 N.am  406  LEU406     -0.1980
     63  CA        36.1970   16.5690   12.7560 C.3   406  LEU406      0.1596
     64  C         37.4440   17.2560   12.2360 C.2   406  LEU406      0.2287
     65  O         37.3760   17.9840   11.2730 O.2   406  LEU406     -0.2864
     66  CB        35.5630   17.3650   13.8950 C.3   406  LEU406      0.0297
     67  CG        34.0850   17.0480   14.1440 C.3   406  LEU406      0.0022
     68  CD1       33.6150   17.7920   15.3970 C.3   406  LEU406      0.0001
     69  CD2       33.1840   17.4170   12.9960 C.3   406  LEU406      0.0001
     70  N         38.3800   15.5200    8.6410 N.3   409  HIS409     -0.1226
     71  CA        37.5420   15.8970    7.5470 C.3   409  HIS409      0.1752
     72  C         37.8090   17.3350    7.1370 C.2   409  HIS409      0.2596
     73  O         37.8920   17.6490    5.9520 O.2   409  HIS409     -0.2718
     74  CB        36.0730   15.7700    7.8950 C.3   409  HIS409      0.0759
     75  CG        35.1780   15.7330    6.6950 C.ar  409  HIS409      0.0818
     76  ND1       35.3900   14.8720    5.6370 N.ar  409  HIS409     -0.2268
     77  CD2       34.0740   16.4560    6.3760 C.ar  409  HIS409      0.1154
     78  CE1       34.4430   15.0540    4.7280 C.ar  409  HIS409      0.1986
     79  NE2       33.6370   16.0150    5.1470 N.ar  409  HIS409     -0.2212
     80  N         37.9360   18.2300    8.1080 N.am  410  PHE410     -0.1976
     81  CA        37.9030   19.6310    7.7390 C.3   410  PHE410      0.1639
     82  C         39.2150   20.1740    7.1880 C.2   410  PHE410      0.2290
     83  O         39.1810   20.9860    6.2920 O.2   410  PHE410     -0.2864
     84  CB        37.2500   20.4580    8.8260 C.3   410  PHE410      0.0560
     85  CG        35.7410   20.4110    8.7490 C.ar  410  PHE410     -0.0200
     86  CD1       35.0020   19.6450    9.6320 C.ar  410  PHE410     -0.0042
     87  CD2       35.0600   21.1100    7.7520 C.ar  410  PHE410     -0.0042
     88  CE1       33.6400   19.5970    9.5350 C.ar  410  PHE410     -0.0003
     89  CE2       33.6820   21.0610    7.6640 C.ar  410  PHE410     -0.0003
     90  CZ        32.9820   20.3090    8.5540 C.ar  410  PHE410     -0.0000
     91  N         25.0280    7.0850   11.7670 N.3   473  LEU473     -0.1231
     92  CA        24.9090    8.2590   10.9100 C.3   473  LEU473      0.1693
     93  C         25.3730    8.0140    9.4900 C.2   473  LEU473      0.2593
     94  O         25.1360    8.8590    8.6310 O.2   473  LEU473     -0.2718
     95  CB        25.6980    9.4340   11.4870 C.3   473  LEU473      0.0284
     96  CG        25.0420   10.1020   12.6980 C.3   473  LEU473      0.0019
     97  CD1       25.9730   11.1930   13.2170 C.3   473  LEU473      0.0001
     98  CD2       23.6610   10.6530   12.3760 C.3   473  LEU473      0.0001
     99  N         26.0260    6.8740    9.2590 N.am  474  GLY474     -0.1942
    100  CA        26.4940    6.4790    7.9580 C.3   474  GLY474      0.2014
    101  C         27.8950    6.9150    7.6420 C.2   474  GLY474      0.2639
    102  O         28.3040    6.8570    6.4740 O.2   474  GLY474     -0.2714
    103  N         28.6500    7.3300    8.6520 N.am  475  VAL475     -0.1963
    104  CA        29.9830    7.8580    8.3970 C.3   475  VAL475      0.1712
    105  C         31.0090    6.7510    8.5230 C.2   475  VAL475      0.2458
    106  O         30.8450    5.8490    9.3130 O.2   475  VAL475     -0.2730
    107  CB        30.3530    9.1300    9.2760 C.3   475  VAL475      0.0289
    108  CG1       29.1710    9.6940    9.9740 C.3   475  VAL475      0.0023
    109  CG2       31.4570    8.8670   10.2500 C.3   475  VAL475      0.0023
    110  N         32.0830    6.8170    7.7480 N.am  476  PRO476     -0.2727
    111  CA        33.1170    5.7800    7.8200 C.3   476  PRO476      0.1402
    112  C         33.5480    5.5010    9.2700 C.2   476  PRO476      0.2269
    113  O         33.3760    6.3760   10.1220 O.2   476  PRO476     -0.2865
    114  CB        34.2590    6.3710    7.0010 C.3   476  PRO476      0.0296
    115  CG        33.5520    7.2740    6.0170 C.3   476  PRO476      0.0237
    116  CD        32.3910    7.8520    6.7500 C.3   476  PRO476      0.0939
    117  N         39.3050    6.8420    9.2290 N.3   481  TRP481     -0.1241
    118  CA        39.7240    8.1570    9.6730 C.3   481  TRP481      0.1605
    119  C         41.1840    8.1730   10.0690 C.2   481  TRP481      0.2264
    120  O         41.8430    9.1940    9.9560 O.2   481  TRP481     -0.2867
    121  CB        38.8120    8.6610   10.7950 C.3   481  TRP481      0.0550
    122  CG        37.4120    8.9060   10.3190 C.ar  481  TRP481      0.0003
    123  CD1       36.3210    8.1610   10.5960 C.ar  481  TRP481      0.0946
    124  CD2       36.9650    9.9630    9.4480 C.ar  481  TRP481      0.0152
    125  NE1       35.2140    8.6740    9.9570 N.ar  481  TRP481     -0.2442
    126  CE2       35.5880    9.7850    9.2460 C.ar  481  TRP481      0.0810
    127  CE3       37.5990   11.0380    8.8080 C.ar  481  TRP481      0.0012
    128  CZ2       34.8290   10.6440    8.4610 C.ar  481  TRP481      0.0191
    129  CZ3       36.8440   11.8910    8.0280 C.ar  481  TRP481      0.0001
    130  CH2       35.4710   11.6990    7.8700 C.ar  481  TRP481      0.0015
    131  N         42.8920    8.2720    6.3180 N.3   484  ARG484     -0.1245
    132  CA        42.7200    9.6180    5.7640 C.3   484  ARG484      0.1563
    133  C         43.6190   10.6300    6.4460 C.2   484  ARG484      0.2260
    134  O         44.2270   11.4590    5.7990 O.2   484  ARG484     -0.2867
    135  CB        41.2730   10.0850    5.8940 C.3   484  ARG484      0.0307
    136  CG        40.3220    9.3860    4.9510 C.3   484  ARG484      0.0489
    137  CD        38.8710    9.8630    5.0430 C.3   484  ARG484      0.2205
    138  NE        38.0310    9.0100    4.2140 N.pl3 484  ARG484     -0.0865
    139  CZ        36.7220    9.1450    4.0320 C.cat 484  ARG484      0.5346
    140  NH1       36.0310   10.1090    4.6330 N.pl3 484  ARG484      0.1354
    141  NH2       36.0930    8.2920    3.2470 N.pl3 484  ARG484      0.1354
@<TRIPOS>BOND
     1     4     3    2
     2     3     2    1
     3    50    49    2
     4     2     5    1
     5     2     1    1
     6   141   139    1
     7    49    48    1
     8    53    51    1
     9     5     6    1
    10   139   138    2
    11   139   140    1
    12   138   137    1
    13     8     6    1
    14    16    15    1
    15    48    51    1
    16    48    47    1
    17    15    14    1
    18     6     7    1
    19    51    52    1
    20    78    79   ar
    21    78    76   ar
    22   136   137    1
    23   136   135    1
    24    79    77   ar
    25    76    75   ar
    26   132   135    1
    27   132   131    1
    28   132   133    1
    29   134   133    2
    30    73    72    2
    31    45    44    2
    32   115   116    1
    33   115   114    1
    34    14    13    1
    35    83    82    2
    36    77    75   ar
    37   102   101    2
    38    75    74    1
    39   116   110    1
    40   114   111    1
    41    72    71    1
    42    72    80   am
    43    44    43    1
    44    82    81    1
    45    13    10    1
    46    71    74    1
    47    71    70    1
    48   101   100    1
    49   101   103   am
    50    89    87   ar
    51    89    90   ar
    52    81    80    1
    53    81    84    1
    54   110   111    1
    55   110   105   am
    56    87    85   ar
    57    20    19    2
    58   111   112    1
    59    23    21    1
    60   130   129   ar
    61   130   128   ar
    62    43    46    1
    63    43    42    1
    64   100    99    1
    65   129   127   ar
    66    40    39    2
    67   104   105    1
    68   104   103    1
    69   104   107    1
    70   128   126   ar
    71   105   106    2
    72    90    88   ar
    73    94    93    2
    74    10     9    1
    75    10    11    1
    76    85    84    1
    77    85    86   ar
    78   127   124   ar
    79    17    11   am
    80    17    18    1
    81    19    18    1
    82    42    39   am
    83   117   118    1
    84   126   124   ar
    85   126   125   ar
    86    99    93   am
    87   112   113    2
    88    21    18    1
    89    21    22    1
    90   107   108    1
    91   107   109    1
    92    39    38    1
    93   124   122   ar
    94    93    92    1
    95    11    12    2
    96    88    86   ar
    97   118   119    1
    98   118   121    1
    99   120   119    2
   100   125   123   ar
   101   122   123   ar
   102   122   121    1
   103    35    34    2
   104    38    41    1
   105    38    37    1
   106    92    95    1
   107    92    91    1
   108    57    56    2
   109    65    64    2
   110    95    96    1
   111    27    26    2
   112    34    33    1
   113    60    58    1
   114    33    36    1
   115    33    32    1
   116    56    55    1
   117    56    62   am
   118    64    63    1
   119    98    96    1
   120    55    58    1
   121    55    54    1
   122    26    32   am
   123    26    25    1
   124    96    97    1
   125    63    62    1
   126    63    66    1
   127    58    59    1
   128    69    67    1
   129    59    61    1
   130    25    28    1
   131    25    24    1
   132    31    29    1
   133    28    29    1
   134    66    67    1
   135    67    68    1
   136    29    30    1
