@<TRIPOS>MOLECULE
tmp/2brmA00.pdb
 145 136 0 0 0
SMALL
GASTEIGER

@<TRIPOS>ATOM
      1  N          1.9620   -9.6030   23.9460 N.3     9  LEU9       -0.1231
      2  CA         1.2580   -8.8250   22.9250 C.3     9  LEU9        0.1696
      3  C          0.9590   -9.6520   21.6690 C.2     9  LEU9        0.2631
      4  O         -0.1530   -9.5910   21.1420 O.2     9  LEU9       -0.2714
      5  CB         2.0520   -7.5590   22.5550 C.3     9  LEU9        0.0284
      6  CG         1.8890   -6.2720   23.3930 C.3     9  LEU9        0.0019
      7  CD1        0.8740   -6.3990   24.5320 C.3     9  LEU9        0.0001
      8  CD2        3.2340   -5.7970   23.9460 C.3     9  LEU9        0.0001
      9  N          1.9370  -10.4220   21.1960 N.am   10  GLY10      -0.1732
     10  CA         1.7270  -11.2700   20.0310 C.2    10  GLY10       0.1340
     11  C          2.9360  -12.0810   19.5920 C.2    10  GLY10       0.2521
     12  O          4.0330  -11.5430   19.4530 O.2    10  GLY10      -0.2816
     13  N          4.9900  -13.4250   16.9720 N.3    12  GLY12      -0.1225
     14  CA         5.2380  -13.1660   15.5620 C.3    12  GLY12       0.1811
     15  C          6.3830  -13.9650   14.9640 C.2    12  GLY12       0.2280
     16  O          7.5180  -13.4900   14.9260 O.2    12  GLY12      -0.2866
     17  N          9.3340  -15.5780   14.3480 N.3    14  TYR14      -0.1241
     18  CA        10.6500  -15.8450   14.9550 C.3    14  TYR14       0.1605
     19  C         10.5980  -16.0930   16.4680 C.2    14  TYR14       0.2264
     20  O         11.3990  -16.8640   17.0010 O.2    14  TYR14      -0.2867
     21  CB        11.6520  -14.7120   14.6510 C.3    14  TYR14       0.0534
     22  CG        11.0330  -13.3630   14.3370 C.ar   14  TYR14      -0.0201
     23  CD1       10.5460  -12.5440   15.3520 C.ar   14  TYR14      -0.0009
     24  CD2       10.9360  -12.9090   13.0220 C.ar   14  TYR14      -0.0009
     25  CE1        9.9770  -11.3070   15.0660 C.ar   14  TYR14       0.0417
     26  CE2       10.3670  -11.6760   12.7270 C.ar   14  TYR14       0.0417
     27  CZ         9.8910  -10.8790   13.7530 C.ar   14  TYR14       0.1957
     28  OH         9.3270   -9.6550   13.4680 O.3    14  TYR14      -0.2866
     29  N          6.5780  -11.1540   21.3290 N.3    17  VAL17      -0.1245
     30  CA         6.7350   -9.7890   21.8230 C.3    17  VAL17       0.1561
     31  C          5.9480   -9.6490   23.1230 C.2    17  VAL17       0.2260
     32  O          4.8230  -10.1380   23.2230 O.2    17  VAL17      -0.2867
     33  CB         6.2490   -8.7440   20.7940 C.3    17  VAL17       0.0252
     34  CG1        6.6780   -7.3420   21.2100 C.3    17  VAL17       0.0019
     35  CG2        6.7830   -9.0710   19.4040 C.3    17  VAL17       0.0019
     36  N          7.8700   -2.3710   24.5400 N.3    30  ALA30      -0.1245
     37  CA         7.7410   -3.6830   23.9050 C.3    30  ALA30       0.1562
     38  C          9.0960   -4.3870   23.8790 C.2    30  ALA30       0.2260
     39  O         10.1370   -3.7350   23.9330 O.2    30  ALA30      -0.2867
     40  CB         7.1910   -3.5390   22.4950 C.3    30  ALA30       0.0290
     41  N         10.8310   -7.5460   21.7010 N.3    32  LYS32      -0.1245
     42  CA        10.9380   -8.6470   20.7460 C.3    32  LYS32       0.1561
     43  C         11.9600   -9.6660   21.2480 C.2    32  LYS32       0.2260
     44  O         13.0060   -9.2930   21.7760 O.2    32  LYS32      -0.2867
     45  CB        11.3370   -8.1340   19.3580 C.3    32  LYS32       0.0271
     46  CG        10.8300   -9.0070   18.2110 C.3    32  LYS32       0.0035
     47  CD        11.7900   -9.0350   17.0180 C.3    32  LYS32       0.0206
     48  CE        11.2580   -8.2400   15.8330 C.3    32  LYS32       0.1093
     49  NZ        12.0260   -8.5200   14.5890 N.3    32  LYS32      -0.1314
     50  N          9.3320    3.2600   14.9510 N.3    57  VAL57      -0.1245
     51  CA         9.3890    2.6530   16.2780 C.3    57  VAL57       0.1561
     52  C         10.7920    2.8110   16.8690 C.2    57  VAL57       0.2260
     53  O         11.7630    2.2810   16.3270 O.2    57  VAL57      -0.2867
     54  CB         8.9910    1.1570   16.2270 C.3    57  VAL57       0.0252
     55  CG1        9.2880    0.4550   17.5560 C.3    57  VAL57       0.0019
     56  CG2        7.5150    1.0130   15.8620 C.3    57  VAL57       0.0019
     57  N         12.0630   -1.8340   22.5180 N.3    73  LEU73      -0.1231
     58  CA        11.4780   -0.9540   21.5080 C.3    73  LEU73       0.1693
     59  C         10.3180   -0.1250   22.0610 C.2    73  LEU73       0.2592
     60  O          9.8270   -0.3740   23.1610 O.2    73  LEU73      -0.2718
     61  CB        10.9760   -1.7790   20.3180 C.3    73  LEU73       0.0284
     62  CG        11.9750   -2.6510   19.5520 C.3    73  LEU73       0.0019
     63  CD1       11.2470   -3.7330   18.7750 C.3    73  LEU73       0.0001
     64  CD2       12.8230   -1.8020   18.6210 C.3    73  LEU73       0.0001
     65  N          9.8750    0.8500   21.2720 N.am   74  GLU74      -0.1966
     66  CA         8.7890    1.7420   21.6610 C.3    74  GLU74       0.1733
     67  C          7.4690    0.9820   21.6910 C.2    74  GLU74       0.2616
     68  O          7.1050    0.3260   20.7160 O.2    74  GLU74      -0.2715
     69  CB         8.6900    2.9120   20.6780 C.3    74  GLU74       0.0429
     70  CG         7.8620    4.0880   21.1700 C.3    74  GLU74       0.1163
     71  CD         7.4320    5.0070   20.0430 C.2    74  GLU74       0.3649
     72  OE1        6.2340    5.3600   19.9850 O.co2  74  GLU74      -0.2457
     73  OE2        8.2890    5.3770   19.2150 O.co2  74  GLU74      -0.2457
     74  N          6.7610    1.0700   22.8140 N.am   75  TYR75      -0.1960
     75  CA         5.4660    0.4180   22.9640 C.3    75  TYR75       0.1771
     76  C          4.3800    1.1930   22.2210 C.2    75  TYR75       0.2620
     77  O          4.2770    2.4140   22.3460 O.2    75  TYR75      -0.2715
     78  CB         5.0890    0.2880   24.4430 C.3    75  TYR75       0.0574
     79  CG         3.7280   -0.3350   24.6710 C.ar   75  TYR75      -0.0198
     80  CD1        3.3880   -1.5470   24.0780 C.ar   75  TYR75      -0.0009
     81  CD2        2.7770    0.2910   25.4740 C.ar   75  TYR75      -0.0009
     82  CE1        2.1420   -2.1230   24.2810 C.ar   75  TYR75       0.0417
     83  CE2        1.5280   -0.2770   25.6840 C.ar   75  TYR75       0.0417
     84  CZ         1.2170   -1.4850   25.0840 C.ar   75  TYR75       0.1957
     85  OH        -0.0190   -2.0540   25.2840 O.3    75  TYR75      -0.2866
     86  N          3.5690    0.4630   21.4620 N.am   76  CYS76      -0.1954
     87  CA         2.4950    1.0420   20.6680 C.3    76  CYS76       0.1843
     88  C          1.1800    0.3780   21.0740 C.2    76  CYS76       0.2626
     89  O          0.8580   -0.7100   20.6060 O.2    76  CYS76      -0.2714
     90  CB         2.7830    0.8350   19.1770 C.3    76  CYS76       0.0997
     91  SG         4.3070    1.6240   18.5950 S.3    76  CYS76      -0.0797
     92  N          0.4300    1.0410   21.9540 N.am   77  SER77      -0.1936
     93  CA        -0.7810    0.4630   22.5480 C.3    77  SER77       0.2055
     94  C         -1.9720    0.3610   21.5830 C.2    77  SER77       0.2644
     95  O         -2.9390   -0.3500   21.8640 O.2    77  SER77      -0.2714
     96  CB        -1.1900    1.2600   23.7940 C.3    77  SER77       0.2130
     97  OG        -1.7190    2.5280   23.4480 O.3    77  SER77      -0.2179
     98  N         -1.9040    1.0780   20.4640 N.am   78  GLY78      -0.1939
     99  CA        -2.9420    1.0380   19.4440 C.3    78  GLY78       0.2014
    100  C         -2.9990   -0.2320   18.6060 C.2    78  GLY78       0.2639
    101  O         -4.0320   -0.5290   18.0060 O.2    78  GLY78      -0.2714
    102  N         -1.9000   -0.9780   18.5500 N.am   79  GLY79      -0.1939
    103  CA        -1.8450   -2.2020   17.7660 C.3    79  GLY79       0.2014
    104  C         -1.5940   -1.9410   16.2890 C.2    79  GLY79       0.2638
    105  O         -1.1650   -0.8570   15.9070 O.2    79  GLY79      -0.2714
    106  N         -1.8700   -2.9410   15.4580 N.am   80  GLU80      -0.1977
    107  CA        -1.5770   -2.8680   14.0280 C.3    80  GLU80       0.1602
    108  C         -2.6090   -2.0460   13.2660 C.2    80  GLU80       0.2287
    109  O         -3.7690   -1.9600   13.6650 O.2    80  GLU80      -0.2864
    110  CB        -1.5360   -4.2680   13.4170 C.3    80  GLU80       0.0415
    111  CG        -0.4910   -5.1980   14.0120 C.3    80  GLU80       0.1163
    112  CD        -0.6180   -6.6220   13.5020 C.2    80  GLU80       0.3649
    113  OE1        0.2110   -7.4670   13.8970 O.co2  80  GLU80      -0.2457
    114  OE2       -1.5430   -6.9020   12.7070 O.co2  80  GLU80      -0.2457
    115  N          0.3340   -4.7960    8.7140 N.3   123  GLU123     -0.1245
    116  CA         0.7730   -5.5880    9.8600 C.3   123  GLU123      0.1567
    117  C          2.0530   -5.0410   10.5020 C.2   123  GLU123      0.2260
    118  O          2.2730   -5.2190   11.7020 O.2   123  GLU123     -0.2867
    119  CB         0.9890   -7.0480    9.4320 C.3   123  GLU123      0.0388
    120  CG        -0.2740   -7.7430    8.9320 C.3   123  GLU123      0.1160
    121  CD        -0.3540   -7.8590    7.4150 C.2   123  GLU123      0.3649
    122  OE1       -0.0600   -6.8720    6.7090 O.co2 123  GLU123     -0.2457
    123  OE2       -0.7330   -8.9430    6.9220 O.co2 123  GLU123     -0.2457
    124  N          2.3790    0.1430   13.0570 N.3   126  LEU126     -0.1245
    125  CA         1.7710    0.1810   14.3810 C.3   126  LEU126      0.1561
    126  C          1.2270    1.5600   14.7330 C.2   126  LEU126      0.2260
    127  O          1.6100    2.5680   14.1420 O.2   126  LEU126     -0.2867
    128  CB         2.7890   -0.2550   15.4340 C.3   126  LEU126      0.0270
    129  CG         3.4990   -1.5820   15.1520 C.3   126  LEU126      0.0019
    130  CD1        4.5260   -1.8640   16.2380 C.3   126  LEU126      0.0001
    131  CD2        2.4860   -2.7220   15.0330 C.3   126  LEU126      0.0001
    132  N          7.4870   -0.3320   11.6640 N.3   136  SER136     -0.1202
    133  CA         8.1320   -1.3010   12.5500 C.3   136  SER136      0.2020
    134  C          8.6990   -2.4970   11.7860 C.2   136  SER136      0.2618
    135  O          8.4130   -2.6830   10.6010 O.2   136  SER136     -0.2717
    136  CB         7.1380   -1.7910   13.6080 C.3   136  SER136      0.2103
    137  OG         6.2700   -2.7790   13.0790 O.3   136  SER136     -0.2182
    138  N          9.5010   -3.2940   12.4920 N.am  137  ASP137     -0.1973
    139  CA        10.1360   -4.5070   11.9660 C.3   137  ASP137      0.1709
    140  C         11.1240   -4.2180   10.8330 C.2   137  ASP137      0.2293
    141  O         10.7520   -4.1900    9.6610 O.2   137  ASP137     -0.2864
    142  CB         9.0830   -5.5360   11.5260 C.3   137  ASP137      0.1436
    143  CG         9.6690   -6.9300   11.3220 C.2   137  ASP137      0.3671
    144  OD1        8.8830   -7.8840   11.1360 O.co2 137  ASP137     -0.2456
    145  OD2       10.8950   -7.1740   11.3270 O.co2 137  ASP137     -0.2456
@<TRIPOS>BOND
     1   122   121   ar
     2   123   121   ar
     3   121   120    1
     4   115   116    1
     5   120   119    1
     6   119   116    1
     7   141   140    2
     8   116   117    1
     9   117   118    2
    10   135   134    2
    11   140   139    1
    12   144   143   ar
    13   143   145   ar
    14   143   142    1
    15   142   139    1
    16   132   133    1
    17   134   138   am
    18   134   133    1
    19   139   138    1
    20   133   136    1
    21   114   112   ar
    22    26    24   ar
    23    26    27   ar
    24    24    22   ar
    25   124   125    1
    26   137   136    1
    27   108   109    2
    28   108   107    1
    29   110   111    1
    30   110   107    1
    31    28    27    1
    32   112   113   ar
    33   112   111    1
    34    27    25   ar
    35   107   106    1
    36   127   126    2
    37    22    21    1
    38    22    23   ar
    39    17    18    1
    40   125   126    1
    41   125   128    1
    42    49    48    1
    43    21    18    1
    44    16    15    2
    45    50    51    1
    46    18    19    1
    47    15    14    1
    48   131   129    1
    49    25    23   ar
    50   129   128    1
    51   129   130    1
    52   106   104   am
    53    14    13    1
    54    48    47    1
    55    56    54    1
    56   105   104    2
    57    54    51    1
    58    54    55    1
    59    51    52    1
    60   104   103    1
    61    53    52    2
    62    19    20    2
    63    47    46    1
    64   103   102    1
    65   101   100    2
    66    46    45    1
    67   102   100   am
    68    91    90    1
    69   100    99    1
    70    64    62    1
    71    63    62    1
    72    90    87    1
    73    73    71   ar
    74    45    42    1
    75    35    33    1
    76    99    98    1
    77    12    11    2
    78    62    61    1
    79    11    10    1
    80    72    71   ar
    81    10     9    2
    82    71    70    1
    83    61    58    1
    84    98    94   am
    85    89    88    2
    86    87    88    1
    87    87    86    1
    88    69    70    1
    89    69    66    1
    90    68    67    2
    91    42    43    1
    92    42    41    1
    93    33    34    1
    94    33    30    1
    95    88    92   am
    96     4     3    2
    97     9     3    1
    98    43    44    2
    99    65    66    1
   100    65    59   am
   101    29    30    1
   102    86    76   am
   103    58    59    1
   104    58    57    1
   105    94    95    2
   106    94    93    1
   107    66    67    1
   108     3     2    1
   109    67    74   am
   110    30    31    1
   111    92    93    1
   112    59    60    2
   113    76    77    2
   114    76    75    1
   115    40    37    1
   116    93    96    1
   117     5     2    1
   118     5     6    1
   119    74    75    1
   120     2     1    1
   121    75    78    1
   122    31    32    2
   123     6     8    1
   124     6     7    1
   125    97    96    1
   126    38    37    1
   127    38    39    2
   128    37    36    1
   129    80    82   ar
   130    80    79   ar
   131    82    84   ar
   132    78    79    1
   133    79    81   ar
   134    84    85    1
   135    84    83   ar
   136    81    83   ar
