@<TRIPOS>MOLECULE
tmp/2brpA00.pdb
 189 184 0 0 0
SMALL
GASTEIGER

@<TRIPOS>ATOM
      1  N         20.8950   -3.7840   29.6370 N.3   120  GLY120     -0.1210
      2  CA        19.8120   -3.8570   30.5940 C.3   120  GLY120      0.1956
      3  C         19.2950   -5.2700   30.6370 C.2   120  GLY120      0.2612
      4  O         20.0380   -6.2300   30.8310 O.2   120  GLY120     -0.2717
      5  N         18.0040   -5.3870   30.4000 N.am  121  ASN121     -0.1960
      6  CA        17.3100   -6.6510   30.4470 C.3   121  ASN121      0.1819
      7  C         17.1890   -7.3350   29.0720 C.2   121  ASN121      0.2621
      8  O         16.6030   -6.7800   28.1470 O.2   121  ASN121     -0.2715
      9  CB        15.9550   -6.3490   31.0760 C.3   121  ASN121      0.1195
     10  CG        15.0830   -7.5380   31.1790 C.2   121  ASN121      0.2630
     11  OD1       15.4620   -8.6450   30.8070 O.2   121  ASN121     -0.2716
     12  ND2       13.8830   -7.3250   31.6900 N.am  121  ASN121     -0.0877
     13  N         17.7570   -8.5320   28.9480 N.am  122  TRP122     -0.1960
     14  CA        17.7100   -9.2940   27.7020 C.3   122  TRP122      0.1771
     15  C         16.2840   -9.5150   27.1880 C.2   122  TRP122      0.2619
     16  O         16.0500   -9.5600   25.9820 O.2   122  TRP122     -0.2715
     17  CB        18.3620  -10.6700   27.8900 C.3   122  TRP122      0.0590
     18  CG        17.5180  -11.5600   28.7640 C.ar  122  TRP122      0.0006
     19  CD1       17.4370  -11.5290   30.1320 C.ar  122  TRP122      0.0946
     20  CD2       16.5270  -12.5040   28.3260 C.ar  122  TRP122      0.0152
     21  NE1       16.4560  -12.3850   30.5680 N.ar  122  TRP122     -0.2442
     22  CE2       15.8830  -12.9960   29.4830 C.ar  122  TRP122      0.0810
     23  CE3       16.1170  -12.9740   27.0690 C.ar  122  TRP122      0.0012
     24  CZ2       14.8530  -13.9380   29.4210 C.ar  122  TRP122      0.0191
     25  CZ3       15.0920  -13.9150   27.0110 C.ar  122  TRP122      0.0001
     26  CH2       14.4740  -14.3850   28.1780 C.ar  122  TRP122      0.0015
     27  N         15.3420   -9.6740   28.1140 N.am  123  TRP123     -0.1974
     28  CA        13.9450   -9.9320   27.7770 C.3   123  TRP123      0.1640
     29  C         13.3560   -8.9120   26.8080 C.2   123  TRP123      0.2290
     30  O         12.5640   -9.2640   25.9280 O.2   123  TRP123     -0.2864
     31  CB        13.0990   -9.9540   29.0610 C.3   123  TRP123      0.0576
     32  CG        11.7020  -10.4380   28.8200 C.ar  123  TRP123      0.0006
     33  CD1       11.2770  -11.7350   28.7810 C.ar  123  TRP123      0.0946
     34  CD2       10.5600   -9.6320   28.4940 C.ar  123  TRP123      0.0152
     35  NE1        9.9450  -11.7880   28.4490 N.ar  123  TRP123     -0.2442
     36  CE2        9.4800  -10.5110   28.2690 C.ar  123  TRP123      0.0810
     37  CE3       10.3460   -8.2520   28.3680 C.ar  123  TRP123      0.0012
     38  CZ2        8.2050  -10.0560   27.9240 C.ar  123  TRP123      0.0191
     39  CZ3        9.0760   -7.8020   28.0250 C.ar  123  TRP123      0.0001
     40  CH2        8.0230   -8.7020   27.8070 C.ar  123  TRP123      0.0015
     41  N         19.2710  -15.3590   24.9910 N.3   167  ARG167     -0.1245
     42  CA        20.5350  -14.7530   25.4150 C.3   167  ARG167      0.1563
     43  C         21.7120  -15.2930   24.6130 C.2   167  ARG167      0.2260
     44  O         22.8270  -15.3940   25.1250 O.2   167  ARG167     -0.2867
     45  CB        20.7910  -15.0000   26.9060 C.3   167  ARG167      0.0307
     46  CG        19.9560  -14.1390   27.8310 C.3   167  ARG167      0.0489
     47  CD        20.7120  -13.8170   29.1190 C.3   167  ARG167      0.2205
     48  NE        20.8750  -14.9870   29.9790 N.pl3 167  ARG167     -0.0865
     49  CZ        19.9730  -15.3850   30.8780 C.cat 167  ARG167      0.5346
     50  NH1       18.8430  -14.7030   31.0390 N.pl3 167  ARG167      0.1354
     51  NH2       20.1990  -16.4660   31.6220 N.pl3 167  ARG167      0.1354
     52  N         20.7600  -19.5640   27.4560 N.3   174  PHE174     -0.1227
     53  CA        20.0380  -20.5910   28.1940 C.3   174  PHE174      0.1736
     54  C         19.0210  -21.2790   27.2960 C.2   174  PHE174      0.2595
     55  O         18.5330  -20.6900   26.3330 O.2   174  PHE174     -0.2718
     56  CB        19.3760  -20.0000   29.4640 C.3   174  PHE174      0.0547
     57  CG        18.1530  -19.1500   29.2170 C.ar  174  PHE174     -0.0202
     58  CD1       16.8980  -19.7340   29.0460 C.ar  174  PHE174     -0.0042
     59  CD2       18.2420  -17.7570   29.2310 C.ar  174  PHE174     -0.0042
     60  CE1       15.7520  -18.9400   28.8990 C.ar  174  PHE174     -0.0003
     61  CE2       17.1030  -16.9590   29.0840 C.ar  174  PHE174     -0.0003
     62  CZ        15.8590  -17.5530   28.9200 C.ar  174  PHE174     -0.0000
     63  N         18.7320  -22.5410   27.5980 N.am  175  LYS175     -0.1980
     64  CA        17.7740  -23.3130   26.8150 C.3   175  LYS175      0.1596
     65  C         16.3630  -22.8300   27.1160 C.2   175  LYS175      0.2287
     66  O         15.9720  -22.7010   28.2870 O.2   175  LYS175     -0.2864
     67  CB        17.8920  -24.8060   27.1350 C.3   175  LYS175      0.0298
     68  CG        16.9490  -25.6700   26.3170 C.3   175  LYS175      0.0038
     69  CD        17.1930  -27.1510   26.5470 C.3   175  LYS175      0.0206
     70  CE        16.2220  -27.9920   25.7360 C.3   175  LYS175      0.1093
     71  NZ        16.2980  -27.6630   24.2880 N.3   175  LYS175     -0.1314
     72  N         12.4290  -22.9870   27.4880 N.3   177  LEU177     -0.1245
     73  CA        11.4050  -23.9620   27.8430 C.3   177  LEU177      0.1561
     74  C         10.1940  -23.2160   28.3900 C.2   177  LEU177      0.2260
     75  O         10.2420  -22.0040   28.5620 O.2   177  LEU177     -0.2867
     76  CB        11.9350  -24.9420   28.8990 C.3   177  LEU177      0.0270
     77  CG        13.0310  -25.9330   28.4910 C.3   177  LEU177      0.0019
     78  CD1       13.4960  -26.7010   29.7200 C.3   177  LEU177      0.0001
     79  CD2       12.5090  -26.8920   27.4200 C.3   177  LEU177      0.0001
     80  N          8.7060  -19.0040   28.3280 N.3   180  ASN180     -0.1240
     81  CA         9.6720  -18.3360   27.4640 C.3   180  ASN180      0.1653
     82  C          9.7560  -19.0200   26.1070 C.2   180  ASN180      0.2266
     83  O          9.9460  -18.3590   25.0890 O.2   180  ASN180     -0.2867
     84  CB        11.0510  -18.2800   28.1300 C.3   180  ASN180      0.1155
     85  CG        11.1140  -17.2180   29.2280 C.2   180  ASN180      0.2627
     86  OD1       12.0010  -17.2370   30.0880 O.2   180  ASN180     -0.2716
     87  ND2       10.1700  -16.2820   29.1960 N.am  180  ASN180     -0.0877
     88  N         12.6210  -27.5540   34.6680 N.3   219  GLU219     -0.1245
     89  CA        11.4690  -26.7020   34.3800 C.3   219  GLU219      0.1567
     90  C         10.4360  -27.4020   33.5030 C.2   219  GLU219      0.2260
     91  O         10.7860  -28.2360   32.6640 O.2   219  GLU219     -0.2867
     92  CB        11.9520  -25.4200   33.7130 C.3   219  GLU219      0.0388
     93  CG        13.2030  -24.9160   34.3910 C.3   219  GLU219      0.1160
     94  CD        13.7960  -23.7200   33.7000 C.2   219  GLU219      0.3649
     95  OE1       13.9590  -23.7690   32.4640 O.co2 219  GLU219     -0.2457
     96  OE2       14.1050  -22.7340   34.3910 O.co2 219  GLU219     -0.2457
     97  N          9.6470  -23.2780   37.0100 N.3   229  ASP229     -0.1225
     98  CA        10.3560  -22.4270   36.0650 C.3   229  ASP229      0.1805
     99  C         11.5010  -21.7870   36.8360 C.2   229  ASP229      0.2598
    100  O         11.5610  -21.8850   38.0610 O.2   229  ASP229     -0.2718
    101  CB         9.4520  -21.3520   35.4740 C.3   229  ASP229      0.1424
    102  CG         9.8160  -21.0080   34.0150 C.2   229  ASP229      0.3668
    103  OD1       10.9770  -20.6470   33.7230 O.co2 229  ASP229     -0.2456
    104  OD2        8.9250  -21.1000   33.1480 O.co2 229  ASP229     -0.2456
    105  N         12.4170  -21.1360   36.1360 N.am  230  HIS230     -0.1961
    106  CA        13.5530  -20.5270   36.8060 C.3   230  HIS230      0.1787
    107  C         14.2560  -21.5540   37.6980 C.2   230  HIS230      0.2620
    108  O         14.4480  -21.3540   38.9000 O.2   230  HIS230     -0.2715
    109  CB        13.1050  -19.3020   37.6040 C.3   230  HIS230      0.0785
    110  CG        12.8630  -18.0940   36.7500 C.ar  230  HIS230      0.0821
    111  ND1       12.6080  -16.8440   37.2730 N.ar  230  HIS230     -0.2267
    112  CD2       12.8530  -17.9460   35.4020 C.ar  230  HIS230      0.1154
    113  CE1       12.4540  -15.9780   36.2850 C.ar  230  HIS230      0.1986
    114  NE2       12.5980  -16.6210   35.1400 N.ar  230  HIS230     -0.2212
    115  N         14.6120  -22.6750   37.0760 N.am  231  THR231     -0.1951
    116  CA        15.3250  -23.7490   37.7340 C.3   231  THR231      0.1897
    117  C         14.5510  -24.5060   38.8030 C.2   231  THR231      0.2313
    118  O         14.4330  -25.7270   38.7300 O.2   231  THR231     -0.2863
    119  CB        16.6230  -23.2260   38.3920 C.3   231  THR231      0.1794
    120  OG1       17.4380  -22.5850   37.4060 O.3   231  THR231     -0.2208
    121  CG2       17.4120  -24.3760   39.0070 C.3   231  THR231      0.0378
    122  N          2.2990  -17.5880   36.7120 N.3   238  ALA238     -0.1231
    123  CA         2.9140  -16.4380   36.0740 C.3   238  ALA238      0.1694
    124  C          3.5260  -16.9260   34.7680 C.2   238  ALA238      0.2592
    125  O          3.0520  -16.5520   33.6940 O.2   238  ALA238     -0.2718
    126  CB         3.9550  -15.7970   36.9920 C.3   238  ALA238      0.0304
    127  N          4.5430  -17.7800   34.8250 N.am  239  TYR239     -0.1976
    128  CA         5.1360  -18.2820   33.5820 C.3   239  TYR239      0.1639
    129  C          4.1990  -19.2880   32.9270 C.2   239  TYR239      0.2290
    130  O          4.1580  -19.4280   31.7040 O.2   239  TYR239     -0.2864
    131  CB         6.5030  -18.9010   33.8560 C.3   239  TYR239      0.0560
    132  CG         7.5340  -17.8360   34.0750 C.ar  239  TYR239     -0.0198
    133  CD1        8.2120  -17.2660   32.9980 C.ar  239  TYR239     -0.0009
    134  CD2        7.7690  -17.3230   35.3470 C.ar  239  TYR239     -0.0009
    135  CE1        9.0970  -16.2060   33.1860 C.ar  239  TYR239      0.0417
    136  CE2        8.6480  -16.2680   35.5460 C.ar  239  TYR239      0.0417
    137  CZ         9.3060  -15.7150   34.4620 C.ar  239  TYR239      0.1957
    138  OH        10.1730  -14.6760   34.6650 O.3   239  TYR239     -0.2866
    139  N          1.8490  -17.2730   30.8520 N.3   242  VAL242     -0.1245
    140  CA         2.4340  -16.8960   29.5660 C.3   242  VAL242      0.1561
    141  C          2.3760  -18.0650   28.5970 C.2   242  VAL242      0.2260
    142  O          2.0570  -17.9030   27.4240 O.2   242  VAL242     -0.2867
    143  CB         3.8900  -16.4450   29.7260 C.3   242  VAL242      0.0252
    144  CG1        4.4710  -16.0900   28.3680 C.3   242  VAL242      0.0019
    145  CG2        3.9560  -15.2530   30.6790 C.3   242  VAL242      0.0019
    146  N          7.1480  -13.6680   41.7380 N.3   293  ARG293     -0.1231
    147  CA         7.3740  -12.2510   42.0000 C.3   293  ARG293      0.1694
    148  C          6.2800  -11.3280   41.4710 C.2   293  ARG293      0.2592
    149  O          6.2560  -10.1390   41.7960 O.2   293  ARG293     -0.2718
    150  CB         8.7500  -11.8210   41.4580 C.3   293  ARG293      0.0321
    151  CG         8.8920  -11.7450   39.9390 C.3   293  ARG293      0.0489
    152  CD        10.3230  -11.3360   39.5770 C.3   293  ARG293      0.2205
    153  NE        10.4530  -10.8220   38.2150 N.pl3 293  ARG293     -0.0865
    154  CZ        10.5560  -11.5780   37.1290 C.cat 293  ARG293      0.5346
    155  NH1       10.5590  -12.8980   37.2310 N.pl3 293  ARG293      0.1354
    156  NH2       10.6230  -11.0090   35.9380 N.pl3 293  ARG293      0.1354
    157  N          5.3620  -11.8720   40.6800 N.am  294  SER294     -0.1952
    158  CA         4.2840  -11.0610   40.1250 C.3   294  SER294      0.1924
    159  C          3.2900  -10.5760   41.1750 C.2   294  SER294      0.2314
    160  O          2.4100   -9.7740   40.8680 O.2   294  SER294     -0.2863
    161  CB         3.5340  -11.8290   39.0340 C.3   294  SER294      0.2116
    162  OG         4.3660  -12.0300   37.9180 O.3   294  SER294     -0.2180
    163  N          3.2080   -6.7440   41.7660 N.3   297  ARG297     -0.1245
    164  CA         2.7740   -5.8440   40.7050 C.3   297  ARG297      0.1563
    165  C          1.3420   -5.4050   40.9820 C.2   297  ARG297      0.2260
    166  O          0.4380   -6.2350   41.0800 O.2   297  ARG297     -0.2867
    167  CB         2.8630   -6.5460   39.3520 C.3   297  ARG297      0.0307
    168  CG         4.2760   -6.9560   38.9980 C.3   297  ARG297      0.0489
    169  CD         4.3190   -7.7860   37.7340 C.3   297  ARG297      0.2205
    170  NE         5.6870   -8.1970   37.4650 N.pl3 297  ARG297     -0.0865
    171  CZ         6.0300   -9.0140   36.4850 C.cat 297  ARG297      0.5346
    172  NH1        5.0950   -9.5020   35.6840 N.pl3 297  ARG297      0.1354
    173  NH2        7.3060   -9.3450   36.3130 N.pl3 297  ARG297      0.1354
    174  N         13.8440  -10.7800   41.9600 N.3   410  MET410     -0.1230
    175  CA        14.7360  -10.4510   40.8580 C.3   410  MET410      0.1702
    176  C         14.1790   -9.2610   40.0910 C.2   410  MET410      0.2592
    177  O         12.9770   -8.9930   40.1380 O.2   410  MET410     -0.2718
    178  CB        14.9620  -11.6540   39.9310 C.3   410  MET410      0.0401
    179  CG        13.8110  -12.0600   39.0480 C.3   410  MET410      0.0596
    180  SD        14.4550  -13.0500   37.6450 S.3   410  MET410     -0.1393
    181  CE        15.1790  -14.4670   38.5350 C.3   410  MET410      0.0692
    182  N         15.0620   -8.5440   39.4020 N.am  411  ASN411     -0.1974
    183  CA        14.6820   -7.3470   38.6570 C.3   411  ASN411      0.1688
    184  C         14.0250   -6.3470   39.5560 C.2   411  ASN411      0.2292
    185  O         13.1180   -5.6270   39.1410 O.2   411  ASN411     -0.2864
    186  CB        13.7170   -7.6700   37.5350 C.3   411  ASN411      0.1181
    187  CG        14.3340   -8.5340   36.5020 C.2   411  ASN411      0.2629
    188  OD1       15.5410   -8.4870   36.2850 O.2   411  ASN411     -0.2716
    189  ND2       13.5190   -9.3340   35.8480 N.am  411  ASN411     -0.0877
@<TRIPOS>BOND
     1    71    70    1
     2    43    44    2
     3    43    42    1
     4    41    42    1
     5    83    82    2
     6    42    45    1
     7    70    69    1
     8    30    29    2
     9    16    15    2
    10    82    81    1
    11    68    69    1
    12    68    67    1
    13    55    54    2
    14    29    28    1
    15    64    65    1
    16    64    67    1
    17    64    63    1
    18    45    46    1
    19    25    23   ar
    20    25    26   ar
    21    23    20   ar
    22    65    66    2
    23    15    14    1
    24    15    27   am
    25    54    63   am
    26    54    53    1
    27    79    77    1
    28   142   141    2
    29    52    53    1
    30    81    84    1
    31    81    80    1
    32    72    73    1
    33    14    17    1
    34    14    13    1
    35    28    27    1
    36    28    31    1
    37    40    38   ar
    38    40    39   ar
    39    46    47    1
    40    73    74    1
    41    73    76    1
    42    17    18    1
    43    38    36   ar
    44    39    37   ar
    45    84    85    1
    46     8     7    2
    47    26    24   ar
    48    53    56    1
    49    36    35   ar
    50    36    34   ar
    51    20    18   ar
    52    20    22   ar
    53    37    34   ar
    54   144   143    1
    55    74    75    2
    56    35    33   ar
    57    77    76    1
    58    77    78    1
    59    34    32   ar
    60   141   140    1
    61    18    19   ar
    62    33    32   ar
    63    32    31    1
    64    60    62   ar
    65    60    58   ar
    66    62    61   ar
    67    13     7   am
    68    58    57   ar
    69     7     6    1
    70    61    59   ar
    71    47    48    1
    72    87    85   am
    73    57    59   ar
    74    57    56    1
    75    85    86    2
    76    24    22   ar
    77    22    21   ar
    78   140   143    1
    79   140   139    1
    80     1     2    1
    81   143   145    1
    82    48    49    2
    83    19    21   ar
    84     5     6    1
    85     5     3   am
    86     6     9    1
    87     2     3    1
    88     3     4    2
    89    11    10    2
    90    49    50    1
    91    49    51    1
    92     9    10    1
    93    10    12   am
    94   130   129    2
    95    95    94   ar
    96    91    90    2
    97   129   128    1
    98   133   135   ar
    99   133   132   ar
   100   104   102   ar
   101   135   137   ar
   102    90    89    1
   103   128   131    1
   104   128   127    1
   105   125   124    2
   106    94    93    1
   107    94    96   ar
   108    92    89    1
   109    92    93    1
   110   103   102   ar
   111   131   132    1
   112   102   101    1
   113   132   134   ar
   114    89    88    1
   115   137   138    1
   116   137   136   ar
   117   124   127   am
   118   124   123    1
   119   114   112   ar
   120   114   113   ar
   121   134   136   ar
   122   112   110   ar
   123   101    98    1
   124   172   171    1
   125   189   187   am
   126   156   154    1
   127    98    99    1
   128    98    97    1
   129   123   122    1
   130   123   126    1
   131   105   106    1
   132   105    99   am
   133   188   187    2
   134   113   111   ar
   135   173   171    1
   136   171   170    2
   137   187   186    1
   138   110   111   ar
   139   110   109    1
   140   106   109    1
   141   106   107    1
   142    99   100    2
   143   115   107   am
   144   115   116    1
   145   154   155    1
   146   154   153    2
   147   120   119    1
   148   170   169    1
   149   186   183    1
   150   180   181    1
   151   180   179    1
   152   107   108    2
   153   169   168    1
   154   116   119    1
   155   116   117    1
   156   162   161    1
   157   153   152    1
   158   119   121    1
   159   183   182    1
   160   183   184    1
   161   118   117    2
   162   168   167    1
   163   161   158    1
   164   179   178    1
   165   185   184    2
   166   167   164    1
   167   182   176   am
   168   152   151    1
   169   178   175    1
   170   151   150    1
   171   176   177    2
   172   176   175    1
   173   158   157    1
   174   158   159    1
   175   157   148   am
   176   164   165    1
   177   164   163    1
   178   175   174    1
   179   160   159    2
   180   165   166    2
   181   150   147    1
   182   148   149    2
   183   148   147    1
   184   146   147    1
