@<TRIPOS>MOLECULE
tmp/2brpA02.pdb
 92 86 0 0 0
SMALL
GASTEIGER

@<TRIPOS>ATOM
      1  N         10.2520  -34.8470   34.7700 N.3   216  ASP216     -0.1225
      2  CA        10.3580  -35.3830   36.1160 C.3   216  ASP216      0.1805
      3  C         11.4850  -34.6800   36.8600 C.2   216  ASP216      0.2598
      4  O         11.8610  -35.0710   37.9610 O.2   216  ASP216     -0.2718
      5  CB        10.5920  -36.8920   36.0780 C.3   216  ASP216      0.1424
      6  CG        11.5240  -37.3040   34.9740 C.2   216  ASP216      0.3668
      7  OD1       11.0650  -38.0160   34.0500 O.co2 216  ASP216     -0.2456
      8  OD2       12.7110  -36.9140   35.0250 O.co2 216  ASP216     -0.2456
      9  N         12.0010  -33.6220   36.2450 N.am  217  GLN217     -0.1965
     10  CA        13.0790  -32.8280   36.8190 C.3   217  GLN217      0.1733
     11  C         13.2170  -31.5440   35.9960 C.2   217  GLN217      0.2616
     12  O         12.8410  -31.5110   34.8280 O.2   217  GLN217     -0.2715
     13  CB        14.3810  -33.6330   36.7910 C.3   217  GLN217      0.0408
     14  CG        15.5230  -33.0140   37.5730 C.3   217  GLN217      0.0908
     15  CD        16.7120  -33.9410   37.6820 C.2   217  GLN217      0.2608
     16  OE1       16.6920  -34.9070   38.4420 O.2   217  GLN217     -0.2717
     17  NE2       17.7550  -33.6580   36.9080 N.am  217  GLN217     -0.0878
     18  N         13.7240  -30.4800   36.6070 N.am  218  GLY218     -0.1955
     19  CA        13.8840  -29.2340   35.8770 C.3   218  GLY218      0.1869
     20  C         12.6110  -28.4280   35.6700 C.2   218  GLY218      0.2309
     21  O         11.6310  -28.5920   36.3930 O.2   218  GLY218     -0.2863
     22  N          4.8210  -31.3540   35.5890 N.3   222  TYR222     -0.1241
     23  CA         5.0640  -32.6700   36.1700 C.3   222  TYR222      0.1605
     24  C          3.7620  -33.4660   36.1460 C.2   222  TYR222      0.2264
     25  O          2.6920  -32.8960   35.9660 O.2   222  TYR222     -0.2867
     26  CB         5.5720  -32.5380   37.6130 C.3   222  TYR222      0.0534
     27  CG         6.9840  -32.0040   37.7200 C.ar  222  TYR222     -0.0201
     28  CD1        7.2830  -30.6890   37.3670 C.ar  222  TYR222     -0.0009
     29  CD2        8.0310  -32.8290   38.1350 C.ar  222  TYR222     -0.0009
     30  CE1        8.5910  -30.2070   37.4200 C.ar  222  TYR222      0.0417
     31  CE2        9.3420  -32.3580   38.1900 C.ar  222  TYR222      0.0417
     32  CZ         9.6120  -31.0460   37.8310 C.ar  222  TYR222      0.1957
     33  OH        10.9030  -30.5750   37.8760 O.3   222  TYR222     -0.2866
     34  N          7.2230  -25.8960   37.2530 N.3   228  ILE228     -0.1245
     35  CA         8.4370  -25.2500   37.7290 C.3   228  ILE228      0.1561
     36  C          9.0750  -24.4140   36.6290 C.2   228  ILE228      0.2260
     37  O          9.0410  -24.7880   35.4550 O.2   228  ILE228     -0.2867
     38  CB         9.4790  -26.3020   38.1660 C.3   228  ILE228      0.0252
     39  CG1        8.9860  -27.0590   39.4040 C.3   228  ILE228      0.0019
     40  CG2       10.8340  -25.6310   38.4040 C.3   228  ILE228      0.0019
     41  CD1        9.0090  -26.2430   40.6890 C.3   228  ILE228      0.0001
     42  N         14.6120  -22.6750   37.0760 N.3   231  THR231     -0.1203
     43  CA        15.3250  -23.7490   37.7340 C.3   231  THR231      0.1994
     44  C         14.5510  -24.5060   38.8030 C.2   231  THR231      0.2617
     45  O         14.4330  -25.7270   38.7300 O.2   231  THR231     -0.2717
     46  CB        16.6230  -23.2260   38.3920 C.3   231  THR231      0.1784
     47  OG1       17.4380  -22.5850   37.4060 O.3   231  THR231     -0.2211
     48  CG2       17.4120  -24.3760   39.0070 C.3   231  THR231      0.0376
     49  N         14.0210  -23.8020   39.7960 N.am  232  ASN232     -0.1974
     50  CA        13.3250  -24.4970   40.8740 C.3   232  ASN232      0.1688
     51  C         12.2800  -23.6830   41.6290 C.2   232  ASN232      0.2292
     52  O         12.1570  -23.8110   42.8440 O.2   232  ASN232     -0.2864
     53  CB        14.3650  -25.0090   41.8650 C.3   232  ASN232      0.1181
     54  CG        15.2110  -23.8870   42.4490 C.2   232  ASN232      0.2629
     55  OD1       15.1860  -22.7550   41.9630 O.2   232  ASN232     -0.2716
     56  ND2       15.9700  -24.2000   43.4910 N.am  232  ASN232     -0.0877
     57  N          5.6010  -31.7600   43.5800 N.3   380  LYS380     -0.1245
     58  CA         6.7970  -31.4200   42.8200 C.3   380  LYS380      0.1561
     59  C          7.1560  -29.9340   42.8720 C.2   380  LYS380      0.2260
     60  O          8.2160  -29.5340   42.4030 O.2   380  LYS380     -0.2867
     61  CB         6.6880  -31.9120   41.3690 C.3   380  LYS380      0.0271
     62  CG         6.6790  -33.4410   41.2280 C.3   380  LYS380      0.0035
     63  CD         7.9310  -34.0780   41.8180 C.3   380  LYS380      0.0206
     64  CE         7.7770  -35.5850   42.0010 C.3   380  LYS380      0.1093
     65  NZ         7.6030  -36.2960   40.7110 N.3   380  LYS380     -0.1314
     66  N         14.3370  -28.9480   47.2990 N.3   403  ARG403     -0.1231
     67  CA        14.0410  -29.0450   45.8740 C.3   403  ARG403      0.1694
     68  C         13.4970  -27.7570   45.2520 C.2   403  ARG403      0.2592
     69  O         13.4350  -27.6440   44.0370 O.2   403  ARG403     -0.2718
     70  CB        13.0120  -30.1580   45.6300 C.3   403  ARG403      0.0321
     71  CG        13.3770  -31.5300   46.1790 C.3   403  ARG403      0.0489
     72  CD        12.1980  -32.4860   46.0440 C.3   403  ARG403      0.2205
     73  NE        11.0780  -32.0560   46.8730 N.pl3 403  ARG403     -0.0865
     74  CZ        10.9180  -32.3780   48.1570 C.cat 403  ARG403      0.5346
     75  NH1       11.8010  -33.1550   48.7700 N.pl3 403  ARG403      0.1354
     76  NH2        9.8870  -31.8960   48.8390 N.pl3 403  ARG403      0.1354
     77  N         13.0940  -26.7960   46.0740 N.am  404  THR404     -0.1953
     78  CA        12.5270  -25.5550   45.5530 C.3   404  THR404      0.1897
     79  C         12.9850  -24.3010   46.2940 C.2   404  THR404      0.2313
     80  O         13.3370  -24.3570   47.4640 O.2   404  THR404     -0.2863
     81  CB        10.9840  -25.6110   45.6070 C.3   404  THR404      0.1794
     82  OG1       10.5660  -25.9580   46.9340 O.3   404  THR404     -0.2208
     83  CG2       10.4520  -26.6460   44.6360 C.3   404  THR404      0.0378
     84  N         10.1970  -39.0270   47.7560 N.3   709  GLN709     -0.1245
     85  CA         9.0970  -38.7310   46.8480 C.3   709  GLN709      0.1566
     86  C          8.4550  -40.0220   46.3600 C.2   709  GLN709      0.2260
     87  O          8.2510  -40.2160   45.1640 O.2   709  GLN709     -0.2867
     88  CB         9.5950  -37.9090   45.6590 C.3   709  GLN709      0.0367
     89  CG        10.1280  -36.5540   46.0710 C.3   709  GLN709      0.0905
     90  CD        10.3890  -35.6340   44.8970 C.2   709  GLN709      0.2608
     91  OE1       11.1270  -35.9770   43.9780 O.2   709  GLN709     -0.2717
     92  NE2        9.7890  -34.4510   44.9300 N.am  709  GLN709     -0.0878
@<TRIPOS>BOND
     1     7     6   ar
     2     1     2    1
     3    12    11    2
     4     6     8   ar
     5     6     5    1
     6    37    36    2
     7    22    23    1
     8    20    19    1
     9    20    21    2
    10    19    18    1
    11    25    24    2
    12    11    18   am
    13    11    10    1
    14     5     2    1
    15     2     3    1
    16    24    23    1
    17    23    26    1
    18     9    10    1
    19     9     3   am
    20    36    35    1
    21    13    10    1
    22    13    14    1
    23     3     4    2
    24    17    15   am
    25    42    43    1
    26    34    35    1
    27    28    30   ar
    28    28    27   ar
    29    47    46    1
    30    30    32   ar
    31    14    15    1
    32    26    27    1
    33    15    16    2
    34    27    29   ar
    35    35    38    1
    36    43    46    1
    37    43    44    1
    38    32    33    1
    39    32    31   ar
    40    29    31   ar
    41    38    40    1
    42    38    39    1
    43    46    48    1
    44    45    44    2
    45    44    49   am
    46    39    41    1
    47    49    50    1
    48    65    64    1
    49    50    51    1
    50    50    53    1
    51    62    61    1
    52    62    63    1
    53    61    58    1
    54    51    52    2
    55    63    64    1
    56    53    54    1
    57    55    54    2
    58    60    59    2
    59    54    56   am
    60    58    59    1
    61    58    57    1
    62    91    90    2
    63    69    68    2
    64    83    81    1
    65    90    92   am
    66    90    89    1
    67    87    86    2
    68    68    67    1
    69    68    77   am
    70    78    81    1
    71    78    77    1
    72    78    79    1
    73    81    82    1
    74    70    67    1
    75    70    71    1
    76    88    89    1
    77    88    85    1
    78    67    66    1
    79    72    71    1
    80    72    73    1
    81    79    80    2
    82    86    85    1
    83    85    84    1
    84    73    74    2
    85    74    75    1
    86    74    76    1
