@<TRIPOS>MOLECULE
tmp/2brqA00.pdb
 85 82 0 0 0
SMALL
GASTEIGER

@<TRIPOS>ATOM
      1  N         26.5580   13.7560   15.7910 N.3    28  THR28      -0.1203
      2  CA        25.1780   13.3650   16.1060 C.3    28  THR28       0.1994
      3  C         24.3340   13.0070   14.8820 C.2    28  THR28       0.2617
      4  O         23.2530   12.4270   15.0360 O.2    28  THR28      -0.2717
      5  CB        24.4010   14.5020   16.8630 C.3    28  THR28       0.1784
      6  OG1       24.3810   15.6920   16.0530 O.3    28  THR28      -0.2211
      7  CG2       25.0130   14.8140   18.2250 C.3    28  THR28       0.0376
      8  N         24.8210   13.3600   13.6880 N.am   29  ARG29      -0.1979
      9  CA        24.1110   13.2340   12.4070 C.3    29  ARG29       0.1597
     10  C         23.5100   11.8400   12.1250 C.2    29  ARG29       0.2287
     11  O         22.4590   11.7340   11.4870 O.2    29  ARG29      -0.2864
     12  CB        25.0570   13.6370   11.2600 C.3    29  ARG29       0.0334
     13  CG        24.3950   14.0100    9.9200 C.3    29  ARG29       0.0492
     14  CD        25.4350   14.3150    8.8130 C.3    29  ARG29       0.2205
     15  NE        25.6930   15.7510    8.5900 N.pl3  29  ARG29      -0.0865
     16  CZ        26.4650   16.5370    9.3580 C.cat  29  ARG29       0.5346
     17  NH1       27.0750   16.0570   10.4370 N.pl3  29  ARG29       0.1354
     18  NH2       26.6290   17.8230    9.0520 N.pl3  29  ARG29       0.1354
     19  N         20.5770   13.4970   24.3540 N.3    36  LEU36      -0.1245
     20  CA        22.0170   13.5480   24.3850 C.3    36  LEU36       0.1561
     21  C         22.4850   14.2220   25.7050 C.2    36  LEU36       0.2260
     22  O         22.2470   15.3990   25.9140 O.2    36  LEU36      -0.2867
     23  CB        22.5300   14.2820   23.1270 C.3    36  LEU36       0.0270
     24  CG        24.0310   14.5320   23.0910 C.3    36  LEU36       0.0019
     25  CD1       24.7800   13.2050   22.8070 C.3    36  LEU36       0.0001
     26  CD2       24.4110   15.6420   22.1280 C.3    36  LEU36       0.0001
     27  N         26.1140   23.7840   25.6190 N.3    50  PHE50      -0.1227
     28  CA        26.0870   23.3050   24.2430 C.3    50  PHE50       0.1736
     29  C         26.4070   24.4790   23.3380 C.2    50  PHE50       0.2595
     30  O         26.0240   25.6030   23.6450 O.2    50  PHE50      -0.2718
     31  CB        24.6940   22.7660   23.8820 C.3    50  PHE50       0.0547
     32  CG        24.3780   21.4390   24.4990 C.ar   50  PHE50      -0.0202
     33  CD1       25.1290   20.3170   24.1680 C.ar   50  PHE50      -0.0042
     34  CD2       23.3040   21.3040   25.3750 C.ar   50  PHE50      -0.0042
     35  CE1       24.8480   19.0710   24.7170 C.ar   50  PHE50      -0.0003
     36  CE2       23.0080   20.0690   25.9270 C.ar   50  PHE50      -0.0003
     37  CZ        23.7910   18.9460   25.6060 C.ar   50  PHE50      -0.0000
     38  N         27.1160   24.2190   22.2340 N.am   51  GLU51      -0.1965
     39  CA        27.5150   25.2800   21.2970 C.3    51  GLU51       0.1733
     40  C         27.3980   24.8290   19.8410 C.2    51  GLU51       0.2616
     41  O         27.3190   23.6290   19.5280 O.2    51  GLU51      -0.2715
     42  CB        28.9690   25.7590   21.5260 C.3    51  GLU51       0.0429
     43  CG        29.6420   25.4620   22.8860 C.3    51  GLU51       0.1163
     44  CD        31.0270   26.0820   22.9600 C.2    51  GLU51       0.3649
     45  OE1       31.9660   25.5680   22.2940 O.co2  51  GLU51      -0.2457
     46  OE2       31.1720   27.1060   23.6730 O.co2  51  GLU51      -0.2457
     47  N         27.4290   25.8110   18.9540 N.am   52  ASP52      -0.1957
     48  CA        27.4100   25.5550   17.5190 C.3    52  ASP52       0.1840
     49  C         28.7990   25.1300   17.0790 C.2    52  ASP52       0.2621
     50  O         29.8170   25.5330   17.6880 O.2    52  ASP52      -0.2715
     51  CB        26.9900   26.8120   16.7730 C.3    52  ASP52       0.1450
     52  CG        25.6050   27.2910   17.1760 C.2    52  ASP52       0.3671
     53  OD1       24.7350   26.4360   17.4820 O.co2  52  ASP52      -0.2456
     54  OD2       25.3920   28.5200   17.1930 O.co2  52  ASP52      -0.2456
     55  N         28.8280   24.2600   16.0700 N.am   53  ARG53      -0.1977
     56  CA        30.0490   23.9660   15.3330 C.3    53  ARG53       0.1597
     57  C         29.7990   24.1610   13.8210 C.2    53  ARG53       0.2287
     58  O         28.7130   23.8270   13.3130 O.2    53  ARG53      -0.2864
     59  CB        30.5580   22.5620   15.6430 C.3    53  ARG53       0.0334
     60  CG        30.9410   22.3100   17.1200 C.3    53  ARG53       0.0492
     61  CD        32.3680   22.7530   17.4180 C.3    53  ARG53       0.2205
     62  NE        32.8100   22.4880   18.7960 N.pl3  53  ARG53      -0.0865
     63  CZ        32.6980   23.3520   19.8250 C.cat  53  ARG53       0.5346
     64  NH1       32.1380   24.5620   19.6570 N.pl3  53  ARG53       0.1354
     65  NH2       33.1330   23.0120   21.0380 N.pl3  53  ARG53       0.1354
     66  N         28.6890   21.0300   11.7570 N.3    56  GLY56      -0.1210
     67  CA        27.3740   20.4660   12.0130 C.3    56  GLY56       0.1956
     68  C         27.3350   19.5030   13.1770 C.2    56  GLY56       0.2613
     69  O         26.2810   18.9710   13.5070 O.2    56  GLY56      -0.2717
     70  N         28.4810   19.2410   13.7950 N.am   57  SER57      -0.1938
     71  CA        28.4870   18.4860   15.0290 C.3    57  SER57       0.2055
     72  C         27.9000   19.3540   16.1630 C.2    57  SER57       0.2643
     73  O         27.7100   20.5720   16.0230 O.2    57  SER57      -0.2714
     74  CB        29.9010   18.0190   15.3800 C.3    57  SER57       0.2130
     75  OG        30.7260   19.0940   15.8070 O.3    57  SER57      -0.2179
     76  N         27.6000   18.7080   17.2720 N.am   58  CYS58      -0.1953
     77  CA        27.1590   19.3990   18.4610 C.3    58  CYS58       0.1843
     78  C         28.3990   19.7740   19.3050 C.2    58  CYS58       0.2626
     79  O         29.1390   18.9010   19.7360 O.2    58  CYS58      -0.2714
     80  CB        26.2250   18.4840   19.2630 C.3    58  CYS58       0.0997
     81  SG        25.7900   19.1370   20.9110 S.3    58  CYS58      -0.0797
     82  N         28.6290   21.0630   19.5170 N.am   59  GLY59      -0.1954
     83  CA        29.7620   21.5260   20.3350 C.3    59  GLY59       0.1869
     84  C         29.4340   21.5590   21.8190 C.2    59  GLY59       0.2309
     85  O         28.2870   21.8760   22.2070 O.2    59  GLY59      -0.2863
@<TRIPOS>BOND
     1    15    14    1
     2    15    16    2
     3    14    13    1
     4    18    16    1
     5    16    17    1
     6    13    12    1
     7    12     9    1
     8    11    10    2
     9    66    67    1
    10    67    68    1
    11    10     9    1
    12     9     8    1
    13    68    69    2
    14    68    70   am
    15    58    57    2
    16     8     3   am
    17    70    71    1
    18    57    56    1
    19     3     4    2
    20     3     2    1
    21    71    74    1
    22    71    72    1
    23    56    59    1
    24    56    55    1
    25    74    75    1
    26    59    60    1
    27     1     2    1
    28    73    72    2
    29     6     5    1
    30    55    49   am
    31     2     5    1
    32    72    76   am
    33    51    52    1
    34    51    48    1
    35     5     7    1
    36    49    48    1
    37    49    50    2
    38    60    61    1
    39    52    54   ar
    40    52    53   ar
    41    76    77    1
    42    61    62    1
    43    48    47    1
    44    77    80    1
    45    77    78    1
    46    62    63    2
    47    47    40   am
    48    80    81    1
    49    78    82   am
    50    78    79    2
    51    82    83    1
    52    41    40    2
    53    64    63    1
    54    63    65    1
    55    40    39    1
    56    83    84    1
    57    39    42    1
    58    39    38    1
    59    42    43    1
    60    84    85    2
    61    26    24    1
    62    38    29   am
    63    45    44   ar
    64    25    24    1
    65    43    44    1
    66    44    46   ar
    67    24    23    1
    68    23    20    1
    69    29    30    2
    70    29    28    1
    71    31    28    1
    72    31    32    1
    73    33    32   ar
    74    33    35   ar
    75    28    27    1
    76    19    20    1
    77    20    21    1
    78    32    34   ar
    79    35    37   ar
    80    34    36   ar
    81    37    36   ar
    82    21    22    2
