@<TRIPOS>MOLECULE
tmp/2brrE00.pdb
 137 138 0 0 0
SMALL
GASTEIGER

@<TRIPOS>ATOM
      1  N         68.3820   23.6770  141.5300 N.3    30  THR30      -0.1203
      2  CA        68.9640   22.8670  142.5940 C.3    30  THR30       0.1994
      3  C         68.0270   22.5680  143.7910 C.2    30  THR30       0.2618
      4  O         68.4270   21.8630  144.7390 O.2    30  THR30      -0.2717
      5  CB        70.2630   23.5060  143.0910 C.3    30  THR30       0.1784
      6  OG1       70.0030   24.8440  143.5230 O.3    30  THR30      -0.2211
      7  CG2       71.3210   23.5220  141.9760 C.3    30  THR30       0.0376
      8  N         66.8030   23.1000  143.7660 N.am   31  ASN31      -0.1960
      9  CA        65.8570   22.9160  144.8880 C.3    31  ASN31       0.1819
     10  C         64.8200   21.8120  144.6320 C.2    31  ASN31       0.2621
     11  O         64.0370   21.4820  145.5240 O.2    31  ASN31      -0.2715
     12  CB        65.1420   24.2520  145.2570 C.3    31  ASN31       0.1195
     13  CG        66.0370   25.2220  146.0080 C.2    31  ASN31       0.2630
     14  OD1       67.1160   24.8530  146.4970 O.2    31  ASN31      -0.2716
     15  ND2       65.5980   26.4760  146.1110 N.am   31  ASN31      -0.0877
     16  N         64.8020   21.2690  143.4080 N.am   32  TYR32      -0.1960
     17  CA        63.8430   20.2310  143.0200 C.3    32  TYR32       0.1771
     18  C         64.5720   19.0950  142.3590 C.2    32  TYR32       0.2620
     19  O         65.4260   19.3230  141.4940 O.2    32  TYR32      -0.2715
     20  CB        62.8210   20.7740  142.0210 C.3    32  TYR32       0.0574
     21  CG        62.0200   21.9310  142.5370 C.ar   32  TYR32      -0.0198
     22  CD1       62.5600   23.2200  142.5550 C.ar   32  TYR32      -0.0009
     23  CD2       60.7280   21.7480  143.0070 C.ar   32  TYR32      -0.0009
     24  CE1       61.8460   24.2890  143.0350 C.ar   32  TYR32       0.0417
     25  CE2       59.9890   22.8290  143.4900 C.ar   32  TYR32       0.0417
     26  CZ        60.5600   24.0840  143.4860 C.ar   32  TYR32       0.1957
     27  OH        59.8670   25.1460  143.9570 O.3    32  TYR32      -0.2866
     28  N         64.2310   17.8690  142.7490 N.am   33  GLY33      -0.1954
     29  CA        64.7650   16.6870  142.0770 C.3    33  GLY33       0.1869
     30  C         64.2560   16.5950  140.6510 C.2    33  GLY33       0.2309
     31  O         63.1840   17.1050  140.3380 O.2    33  GLY33      -0.2863
     32  N         65.6560    9.1870  139.7650 N.3    50  TRP50      -0.1241
     33  CA        65.7850   10.6310  139.8700 C.3    50  TRP50       0.1605
     34  C         67.1920   11.0180  140.2400 C.2    50  TRP50       0.2264
     35  O         67.9920   10.2080  140.7050 O.2    50  TRP50      -0.2867
     36  CB        64.7850   11.1820  140.8960 C.3    50  TRP50       0.0550
     37  CG        65.0850   10.8100  142.3360 C.ar   50  TRP50       0.0003
     38  CD1       65.0170    9.5670  142.9010 C.ar   50  TRP50       0.0946
     39  CD2       65.5040   11.7030  143.3710 C.ar   50  TRP50       0.0152
     40  NE1       65.3490    9.6410  144.2350 N.ar   50  TRP50      -0.2442
     41  CE2       65.6710   10.9400  144.5390 C.ar   50  TRP50       0.0810
     42  CE3       65.7880   13.0880  143.4130 C.ar   50  TRP50       0.0012
     43  CZ2       66.0820   11.5110  145.7630 C.ar   50  TRP50       0.0191
     44  CZ3       66.1920   13.6520  144.6330 C.ar   50  TRP50       0.0001
     45  CH2       66.3400   12.8630  145.7790 C.ar   50  TRP50       0.0015
     46  N         69.2600   13.9780  142.4800 N.3    52  ASN52      -0.1225
     47  CA        69.2480   15.0590  143.4240 C.3    52  ASN52       0.1785
     48  C         70.0600   16.2140  142.7960 C.2    52  ASN52       0.2598
     49  O         71.2500   16.0530  142.4530 O.2    52  ASN52      -0.2718
     50  CB        69.8440   14.5570  144.7380 C.3    52  ASN52       0.1169
     51  CG        69.7080   15.5470  145.8560 C.2    52  ASN52       0.2627
     52  OD1       69.9980   16.7400  145.6890 O.2    52  ASN52      -0.2716
     53  ND2       69.2690   15.0670  147.0100 N.am   52  ASN52      -0.0877
     54  N         69.4150   17.3610  142.6140 N.am   53  THR53      -0.1939
     55  CA        70.0450   18.4750  141.9120 C.3    53  THR53       0.2028
     56  C         70.8650   19.3700  142.8410 C.2    53  THR53       0.2642
     57  O         71.5700   20.2870  142.3960 O.2    53  THR53      -0.2714
     58  CB        69.0060   19.3390  141.1910 C.3    53  THR53       0.1808
     59  OG1       68.0070   19.7520  142.1270 O.3    53  THR53      -0.2208
     60  CG2       68.3710   18.5900  139.9990 C.3    53  THR53       0.0379
     61  N         70.7510   19.1360  144.1370 N.am   54  TYR54      -0.1959
     62  CA        71.5640   19.8550  145.0870 C.3    54  TYR54       0.1771
     63  C         72.8960   19.1480  145.3230 C.2    54  TYR54       0.2620
     64  O         73.9310   19.8020  145.4880 O.2    54  TYR54      -0.2715
     65  CB        70.8020   19.9920  146.3950 C.3    54  TYR54       0.0574
     66  CG        71.3080   21.0750  147.3110 C.ar   54  TYR54      -0.0198
     67  CD1       72.3040   20.8160  148.2570 C.ar   54  TYR54      -0.0009
     68  CD2       70.7730   22.3520  147.2560 C.ar   54  TYR54      -0.0009
     69  CE1       72.7550   21.8170  149.1240 C.ar   54  TYR54       0.0417
     70  CE2       71.2090   23.3620  148.1150 C.ar   54  TYR54       0.0417
     71  CZ        72.1970   23.0880  149.0460 C.ar   54  TYR54       0.1957
     72  OH        72.6080   24.0990  149.8980 O.3    54  TYR54      -0.2866
     73  N         72.8540   17.8160  145.3700 N.am   55  THR55      -0.1951
     74  CA        74.0270   16.9960  145.6720 C.3    55  THR55       0.1897
     75  C         74.5910   16.2750  144.4370 C.2    55  THR55       0.2313
     76  O         75.7670   15.8630  144.4340 O.2    55  THR55      -0.2863
     77  CB        73.7120   15.9090  146.7360 C.3    55  THR55       0.1794
     78  OG1       72.8600   14.9230  146.1440 O.3    55  THR55      -0.2208
     79  CG2       73.0660   16.5170  147.9950 C.3    55  THR55       0.0378
     80  N         60.2000   17.3470  140.4930 N.3    99  ASP99      -0.1239
     81  CA        59.5190   17.0840  141.7690 C.3    99  ASP99       0.1674
     82  C         58.4470   18.1180  142.0700 C.2    99  ASP99       0.2266
     83  O         58.6850   19.3380  141.9620 O.2    99  ASP99      -0.2867
     84  CB        60.5030   17.1770  142.9460 C.3    99  ASP99       0.1410
     85  CG        61.3980   15.9780  143.0760 C.2    99  ASP99       0.3668
     86  OD1       61.1310   14.9390  142.4270 O.co2  99  ASP99      -0.2456
     87  OD2       62.3740   16.0900  143.8550 O.co2  99  ASP99      -0.2456
     88  N         56.4050   19.8360  145.0120 N.3   101  TYR101     -0.1241
     89  CA        56.6080   20.1810  146.4020 C.3   101  TYR101      0.1605
     90  C         55.4070   20.9330  146.9370 C.2   101  TYR101      0.2264
     91  O         54.7120   21.6360  146.1930 O.2   101  TYR101     -0.2867
     92  CB        57.8420   21.0770  146.5630 C.3   101  TYR101      0.0534
     93  CG        59.1010   20.3400  146.8700 C.ar  101  TYR101     -0.0201
     94  CD1       59.7760   19.6200  145.8810 C.ar  101  TYR101     -0.0009
     95  CD2       59.6340   20.3700  148.1540 C.ar  101  TYR101     -0.0009
     96  CE1       60.9340   18.9360  146.1690 C.ar  101  TYR101      0.0417
     97  CE2       60.7960   19.7000  148.4570 C.ar  101  TYR101      0.0417
     98  CZ        61.4420   18.9880  147.4690 C.ar  101  TYR101      0.1957
     99  OH        62.5930   18.3360  147.7900 O.3   101  TYR101     -0.2866
    100  N         56.9940   23.0580  151.8110 N.3   104  THR104     -0.1203
    101  CA        58.2330   22.6270  152.4460 C.3   104  THR104      0.1994
    102  C         58.6500   21.2320  151.9770 C.2   104  THR104      0.2618
    103  O         59.7920   21.0230  151.5780 O.2   104  THR104     -0.2717
    104  CB        58.0810   22.6590  154.0180 C.3   104  THR104      0.1784
    105  OG1       57.6680   23.9680  154.4170 O.3   104  THR104     -0.2211
    106  CG2       59.3840   22.3100  154.7460 C.3   104  THR104      0.0376
    107  N         57.7160   20.2880  152.0180 N.am  105  TYR105     -0.1962
    108  CA        58.0260   18.8790  151.8040 C.3   105  TYR105      0.1756
    109  C         57.6450   18.4020  150.4150 C.2   105  TYR105      0.2461
    110  O         56.7310   18.9680  149.7990 O.2   105  TYR105     -0.2730
    111  CB        57.3100   18.0080  152.8400 C.3   105  TYR105      0.0574
    112  CG        57.7670   18.2040  154.2710 C.ar  105  TYR105     -0.0198
    113  CD1       59.1220   18.3270  154.5940 C.ar  105  TYR105     -0.0009
    114  CD2       56.8440   18.2430  155.3010 C.ar  105  TYR105     -0.0009
    115  CE1       59.5240   18.5010  155.9110 C.ar  105  TYR105      0.0417
    116  CE2       57.2320   18.4100  156.6230 C.ar  105  TYR105      0.0417
    117  CZ        58.5610   18.5280  156.9200 C.ar  105  TYR105      0.1957
    118  OH        58.9240   18.7070  158.2150 O.3   105  TYR105     -0.2866
    119  N         58.3340   17.3520  149.9220 N.am  106  PRO106     -0.2727
    120  CA        57.9390   16.7710  148.6460 C.3   106  PRO106      0.1402
    121  C         56.6250   16.0030  148.7720 C.2   106  PRO106      0.2269
    122  O         56.3060   15.4560  149.8410 O.2   106  PRO106     -0.2865
    123  CB        59.1060   15.8390  148.2750 C.3   106  PRO106      0.0296
    124  CG        59.9040   15.6520  149.4890 C.3   106  PRO106      0.0237
    125  CD        59.4790   16.6510  150.5350 C.3   106  PRO106      0.0939
    126  N         56.1890   13.7830  146.3970 N.3   108  TYR108     -0.1241
    127  CA        56.6150   12.6370  145.5870 C.3   108  TYR108      0.1605
    128  C         55.7090   12.4260  144.3560 C.2   108  TYR108      0.2264
    129  O         55.3860   11.2940  143.9770 O.2   108  TYR108     -0.2867
    130  CB        56.7160   11.3770  146.4520 C.3   108  TYR108      0.0534
    131  CG        57.6690   11.5600  147.6280 C.ar  108  TYR108     -0.0201
    132  CD1       59.0410   11.3410  147.4710 C.ar  108  TYR108     -0.0009
    133  CD2       57.2050   11.9700  148.8830 C.ar  108  TYR108     -0.0009
    134  CE1       59.9190   11.5160  148.5270 C.ar  108  TYR108      0.0417
    135  CE2       58.0890   12.1340  149.9600 C.ar  108  TYR108      0.0417
    136  CZ        59.4430   11.9100  149.7610 C.ar  108  TYR108      0.1957
    137  OH        60.3560   12.0650  150.7970 O.3   108  TYR108     -0.2866
@<TRIPOS>BOND
     1    32    33    1
     2    33    34    1
     3    33    36    1
     4    60    58    1
     5    34    35    2
     6    31    30    2
     7    80    81    1
     8    30    29    1
     9    36    37    1
    10    58    55    1
    11    58    59    1
    12    19    18    2
    13     1     2    1
    14    81    82    1
    15    81    84    1
    16    55    54    1
    17    55    56    1
    18    83    82    2
    19     7     5    1
    20    20    21    1
    21    20    17    1
    22    29    28    1
    23    37    38   ar
    24    37    39   ar
    25    18    28   am
    26    18    17    1
    27    57    56    2
    28    86    85   ar
    29    49    48    2
    30    46    47    1
    31    21    22   ar
    32    21    23   ar
    33    22    24   ar
    34     2     5    1
    35     2     3    1
    36    54    48   am
    37    48    47    1
    38    56    61   am
    39    38    40   ar
    40    84    85    1
    41    23    25   ar
    42    17    16    1
    43    24    26   ar
    44    85    87   ar
    45     5     6    1
    46    39    42   ar
    47    39    41   ar
    48    16    10   am
    49    42    44   ar
    50    47    50    1
    51    26    25   ar
    52    26    27    1
    53     8     3   am
    54     8     9    1
    55     3     4    2
    56   129   128    2
    57    61    62    1
    58    40    41   ar
    59   128   127    1
    60    76    75    2
    61    75    74    1
    62    41    43   ar
    63    10     9    1
    64    10    11    2
    65    44    45   ar
    66    50    51    1
    67     9    12    1
    68    88    89    1
    69    62    63    1
    70    62    65    1
    71    12    13    1
    72    63    73   am
    73    63    64    2
    74    73    74    1
    75   127   126    1
    76   127   130    1
    77    74    77    1
    78    52    51    2
    79    43    45   ar
    80    51    53   am
    81    94    96   ar
    82    94    93   ar
    83    13    15   am
    84    13    14    2
    85    78    77    1
    86    96    98   ar
    87    91    90    2
    88    65    66    1
    89    89    92    1
    90    89    90    1
    91   130   131    1
    92    92    93    1
    93    77    79    1
    94    93    95   ar
    95    68    66   ar
    96    68    70   ar
    97    66    67   ar
    98    98    99    1
    99    98    97   ar
   100   132   131   ar
   101   132   134   ar
   102   131   133   ar
   103    70    71   ar
   104    95    97   ar
   105    67    69   ar
   106   123   120    1
   107   123   124    1
   108   134   136   ar
   109   120   121    1
   110   120   119    1
   111   121   122    2
   112   133   135   ar
   113    71    69   ar
   114    71    72    1
   115   124   125    1
   116   136   135   ar
   117   136   137    1
   118   110   109    2
   119   119   109   am
   120   119   125    1
   121   109   108    1
   122   103   102    2
   123   108   107    1
   124   108   111    1
   125   100   101    1
   126   102   107   am
   127   102   101    1
   128   101   104    1
   129   111   112    1
   130   104   105    1
   131   104   106    1
   132   112   113   ar
   133   112   114   ar
   134   113   115   ar
   135   114   116   ar
   136   115   117   ar
   137   116   117   ar
   138   117   118    1
