@<TRIPOS>MOLECULE
tmp/2brsB00.pdb
 94 91 0 0 0
SMALL
GASTEIGER

@<TRIPOS>ATOM
      1  N         60.3600   49.9690   28.1690 N.3    49  GLN49      -0.1245
      2  CA        59.0020   49.4530   28.2520 C.3    49  GLN49       0.1566
      3  C         57.9850   50.4050   28.8620 C.2    49  GLN49       0.2260
      4  O         58.3330   51.3190   29.6080 O.2    49  GLN49      -0.2867
      5  CB        58.9920   48.1330   29.0300 C.3    49  GLN49       0.0367
      6  CG        59.7070   48.1830   30.3610 C.3    49  GLN49       0.0905
      7  CD        59.9530   46.8010   30.9300 C.2    49  GLN49       0.2608
      8  OE1       59.0170   46.0720   31.2550 O.2    49  GLN49      -0.2717
      9  NE2       61.2240   46.4300   31.0470 N.am   49  GLN49      -0.0878
     10  N         61.7870   35.0340   29.1970 N.3    82  GLN82      -0.1231
     11  CA        61.5590   35.9670   30.2830 C.3    82  GLN82       0.1683
     12  C         61.2500   35.2740   31.6000 C.2    82  GLN82       0.2434
     13  O         60.9100   34.0990   31.6320 O.2    82  GLN82      -0.2733
     14  CB        60.3740   36.8760   29.9310 C.3    82  GLN82       0.0380
     15  CG        59.0410   36.1230   29.8820 C.3    82  GLN82       0.0905
     16  CD        57.8470   37.0390   29.6780 C.2    82  GLN82       0.2608
     17  OE1       57.2690   37.1080   28.5850 O.2    82  GLN82      -0.2717
     18  NE2       57.4820   37.7610   30.7250 N.am   82  GLN82      -0.0878
     19  N         61.4040   35.9980   32.7130 N.am   83  PRO83      -0.2729
     20  CA        61.1110   35.4560   34.0430 C.3    83  PRO83       0.1401
     21  C         59.5800   35.3250   33.9960 C.2    83  PRO83       0.2269
     22  O         58.9040   36.2770   33.6080 O.2    83  PRO83      -0.2865
     23  CB        61.5340   36.5860   34.9810 C.3    83  PRO83       0.0296
     24  CG        62.5740   37.3390   34.2000 C.3    83  PRO83       0.0237
     25  CD        62.0400   37.3240   32.7990 C.3    83  PRO83       0.0939
     26  N         57.1130   32.8080   36.3400 N.3    85  SER85      -0.1202
     27  CA        56.6010   32.6270   37.6890 C.3    85  SER85       0.2020
     28  C         57.4270   33.6350   38.4810 C.2    85  SER85       0.2619
     29  O         58.6520   33.6500   38.3660 O.2    85  SER85      -0.2717
     30  CB        56.8880   31.1930   38.1540 C.3    85  SER85       0.2103
     31  OG        56.5390   30.9890   39.5120 O.3    85  SER85      -0.2182
     32  N         56.7740   34.4950   39.2520 N.am   86  ARG86      -0.1965
     33  CA        57.4870   35.5170   40.0240 C.3    86  ARG86       0.1729
     34  C         58.0190   36.6370   39.1180 C.2    86  ARG86       0.2616
     35  O         58.9740   37.3450   39.4690 O.2    86  ARG86      -0.2715
     36  CB        58.6630   34.8980   40.7970 C.3    86  ARG86       0.0348
     37  CG        58.3520   33.5560   41.4570 C.3    86  ARG86       0.0492
     38  CD        57.1270   33.6260   42.3670 C.3    86  ARG86       0.2205
     39  NE        56.5680   32.2990   42.6350 N.pl3  86  ARG86      -0.0865
     40  CZ        57.2110   31.3190   43.2660 C.cat  86  ARG86       0.5346
     41  NH1       58.4520   31.5060   43.7100 N.pl3  86  ARG86       0.1354
     42  NH2       56.6130   30.1440   43.4440 N.pl3  86  ARG86       0.1354
     43  N         57.4020   36.7990   37.9520 N.am   87  GLY87      -0.1955
     44  CA        57.8340   37.8430   37.0380 C.3    87  GLY87       0.1869
     45  C         57.1120   39.1570   37.2910 C.2    87  GLY87       0.2309
     46  O         57.5680   40.2270   36.8690 O.2    87  GLY87      -0.2863
     47  N         55.8900   41.4550   28.5640 N.3   101  ARG101     -0.1231
     48  CA        56.5590   40.7670   29.6580 C.3   101  ARG101      0.1694
     49  C         55.8170   41.0080   30.9620 C.2   101  ARG101      0.2592
     50  O         55.1920   42.0550   31.1490 O.2   101  ARG101     -0.2718
     51  CB        57.9980   41.2690   29.8350 C.3   101  ARG101      0.0321
     52  CG        58.9620   41.0070   28.6850 C.3   101  ARG101      0.0489
     53  CD        60.3930   41.2460   29.1780 C.3   101  ARG101      0.2205
     54  NE        60.3530   42.1350   30.3380 N.pl3 101  ARG101     -0.0865
     55  CZ        60.6510   41.7850   31.5880 C.cat 101  ARG101      0.5346
     56  NH1       61.0470   40.5470   31.8750 N.pl3 101  ARG101      0.1354
     57  NH2       60.4850   42.6660   32.5690 N.pl3 101  ARG101      0.1354
     58  N         55.8720   40.0410   31.8670 N.am  102  ARG102     -0.1966
     59  CA        55.2450   40.2390   33.1690 C.3   102  ARG102      0.1729
     60  C         56.1580   41.2570   33.8590 C.2   102  ARG102      0.2616
     61  O         57.3480   41.3250   33.5560 O.2   102  ARG102     -0.2715
     62  CB        55.1830   38.9200   33.9530 C.3   102  ARG102      0.0348
     63  CG        54.1240   37.9620   33.4130 C.3   102  ARG102      0.0492
     64  CD        54.0930   36.5970   34.1160 C.3   102  ARG102      0.2205
     65  NE        53.7180   36.6870   35.5260 N.pl3 102  ARG102     -0.0865
     66  CZ        53.3230   35.6510   36.2650 C.cat 102  ARG102      0.5346
     67  NH1       53.2440   34.4380   35.7330 N.pl3 102  ARG102      0.1354
     68  NH2       52.9990   35.8250   37.5380 N.pl3 102  ARG102      0.1354
     69  N         55.5970   42.0810   34.7390 N.am  103  ALA103     -0.1963
     70  CA        56.3950   43.0850   35.4440 C.3   103  ALA103      0.1728
     71  C         55.7840   43.4030   36.7910 C.2   103  ALA103      0.2616
     72  O         54.5690   43.3230   36.9550 O.2   103  ALA103     -0.2715
     73  CB        56.5090   44.3690   34.6090 C.3   103  ALA103      0.0334
     74  N         56.6310   43.7610   37.7550 N.am  104  HIS104     -0.1973
     75  CA        56.1680   44.1040   39.0960 C.3   104  HIS104      0.1656
     76  C         55.3790   45.4130   39.0640 C.2   104  HIS104      0.2291
     77  O         55.8690   46.4470   38.6130 O.2   104  HIS104     -0.2864
     78  CB        57.3690   44.1640   40.0480 C.3   104  HIS104      0.0771
     79  CG        58.0470   42.8370   40.2160 C.ar  104  HIS104      0.0820
     80  ND1       57.5740   41.8640   41.0700 N.ar  104  HIS104     -0.2267
     81  CD2       59.0950   42.2830   39.5630 C.ar  104  HIS104      0.1154
     82  CE1       58.2980   40.7660   40.9310 C.ar  104  HIS104      0.1986
     83  NE2       59.2270   40.9940   40.0210 N.ar  104  HIS104     -0.2212
     84  N         56.5550   49.0130   40.0740 N.3   107  ARG107     -0.1245
     85  CA        57.5730   49.6390   39.2290 C.3   107  ARG107      0.1563
     86  C         56.9790   50.8690   38.5340 C.2   107  ARG107      0.2260
     87  O         55.7940   50.8810   38.1860 O.2   107  ARG107     -0.2867
     88  CB        58.0640   48.6350   38.1800 C.3   107  ARG107      0.0307
     89  CG        58.9880   49.2080   37.1220 C.3   107  ARG107      0.0489
     90  CD        59.6010   48.0930   36.2760 C.3   107  ARG107      0.2205
     91  NE        60.4100   48.6020   35.1660 N.pl3 107  ARG107     -0.0865
     92  CZ        60.9800   47.8330   34.2400 C.cat 107  ARG107      0.5346
     93  NH1       60.8310   46.5140   34.2910 N.pl3 107  ARG107      0.1354
     94  NH2       61.6910   48.3790   33.2550 N.pl3 107  ARG107      0.1354
@<TRIPOS>BOND
     1     1     2    1
     2     2     3    1
     3     2     5    1
     4    47    48    1
     5    17    16    2
     6    52    53    1
     7    52    51    1
     8     3     4    2
     9     5     6    1
    10    53    54    1
    11    10    11    1
    12    48    51    1
    13    48    49    1
    14    16    15    1
    15    16    18   am
    16    15    14    1
    17    14    11    1
    18    11    12    1
    19    54    55    2
    20     6     7    1
    21     7     9   am
    22     7     8    2
    23    49    50    2
    24    49    58   am
    25    55    56    1
    26    55    57    1
    27    12    13    2
    28    12    19   am
    29    58    59    1
    30    19    25    1
    31    19    20    1
    32    25    24    1
    33    59    60    1
    34    59    62    1
    35    94    92    1
    36    63    62    1
    37    63    64    1
    38    61    60    2
    39    22    21    2
    40    60    69   am
    41    21    20    1
    42    20    23    1
    43    64    65    1
    44    24    23    1
    45    92    93    1
    46    92    91    2
    47    73    70    1
    48    69    70    1
    49    91    90    1
    50    70    71    1
    51    65    66    2
    52    67    66    1
    53    66    68    1
    54    90    89    1
    55    26    27    1
    56    71    72    2
    57    71    74   am
    58    46    45    2
    59    44    45    1
    60    44    43    1
    61    89    88    1
    62    27    30    1
    63    27    28    1
    64    74    75    1
    65    43    34   am
    66    30    31    1
    67    88    85    1
    68    87    86    2
    69    29    28    2
    70    28    32   am
    71    86    85    1
    72    77    76    2
    73    76    75    1
    74    75    78    1
    75    34    35    2
    76    34    33    1
    77    85    84    1
    78    32    33    1
    79    81    83   ar
    80    81    79   ar
    81    83    82   ar
    82    33    36    1
    83    78    79    1
    84    79    80   ar
    85    36    37    1
    86    82    80   ar
    87    37    38    1
    88    38    39    1
    89    39    40    2
    90    40    42    1
    91    40    41    1
