@<TRIPOS>MOLECULE
tmp/2bruC00.pdb
 207 202 0 0 0
SMALL
GASTEIGER

@<TRIPOS>ATOM
      1  N        -27.6300   14.5940   -0.2050 N.3    19  GLY19      -0.1210
      2  CA       -27.6900   13.8380    1.0310 C.3    19  GLY19       0.1956
      3  C        -28.4960   12.5630    0.8780 C.2    19  GLY19       0.2612
      4  O        -29.7020   12.5280    1.1330 O.2    19  GLY19      -0.2717
      5  N        -27.7560   11.4880    0.5940 N.am   20  TYR20      -0.1962
      6  CA       -28.3090   10.1280    0.4960 C.3    20  TYR20       0.1771
      7  C        -29.2360    9.8980   -0.7090 C.2    20  TYR20       0.2620
      8  O        -28.9250    9.0030   -1.4850 O.2    20  TYR20      -0.2715
      9  CB       -28.9180    9.6410    1.8210 C.3    20  TYR20       0.0574
     10  CG       -29.7390    8.3580    1.8290 C.ar   20  TYR20      -0.0198
     11  CD1      -29.2390    7.1600    1.3710 C.ar   20  TYR20      -0.0009
     12  CD2      -30.9850    8.4280    2.4000 C.ar   20  TYR20      -0.0009
     13  CE1      -30.0290    6.0320    1.5250 C.ar   20  TYR20       0.0417
     14  CE2      -31.7730    7.3270    2.5390 C.ar   20  TYR20       0.0417
     15  CZ       -31.2980    6.1130    2.0820 C.ar   20  TYR20       0.1957
     16  OH       -32.0910    4.9900    2.1530 O.3    20  TYR20      -0.2866
     17  N        -30.3310   10.6710   -0.8870 N.am   21  GLY21      -0.1954
     18  CA       -31.2820   10.4660   -1.9950 C.3    21  GLY21       0.1869
     19  C        -30.6150   10.3370   -3.3340 C.2    21  GLY21       0.2309
     20  O        -30.8770    9.4300   -4.1370 O.2    21  GLY21      -0.2863
     21  N        -28.6660    6.6720   -3.4550 N.3    24  VAL24      -0.1231
     22  CA       -29.5430    5.5130   -3.4110 C.3    24  VAL24       0.1692
     23  C        -30.3780    5.4610   -4.7040 C.2    24  VAL24       0.2591
     24  O        -30.5140    4.4300   -5.3750 O.2    24  VAL24      -0.2718
     25  CB       -30.4430    5.4160   -2.1380 C.3    24  VAL24       0.0266
     26  CG1      -31.5060    6.4760   -2.0770 C.3    24  VAL24       0.0020
     27  CG2      -30.9810    3.9770   -2.0190 C.3    24  VAL24       0.0020
     28  N        -30.9020    6.5980   -5.1320 N.am   25  ALA25      -0.1980
     29  CA       -31.7510    6.6760   -6.2840 C.3    25  ALA25       0.1597
     30  C        -30.9820    6.8100   -7.6010 C.2    25  ALA25       0.2287
     31  O        -31.6620    7.0190   -8.6150 O.2    25  ALA25      -0.2864
     32  CB       -32.6530    7.8910   -6.1360 C.3    25  ALA25       0.0319
     33  N        -20.2080   15.7150    4.0140 N.3    51  PRO51      -0.2102
     34  CA       -19.8360   14.2910    4.0140 C.3    51  PRO51       0.1504
     35  C        -20.7220   13.3370    4.8110 C.2    51  PRO51       0.2576
     36  O        -21.2630   12.3430    4.3270 O.2    51  PRO51      -0.2718
     37  CB       -18.4180   14.3180    4.5600 C.3    51  PRO51       0.0282
     38  CG       -18.3520   15.5520    5.4050 C.3    51  PRO51       0.0208
     39  CD       -19.1410   16.5340    4.5690 C.3    51  PRO51       0.0893
     40  N        -20.7940   13.6400    6.0940 N.am   52  VAL52      -0.1966
     41  CA       -21.7320   13.0040    6.9700 C.3    52  VAL52       0.1727
     42  C        -23.1130   13.4420    6.5870 C.2    52  VAL52       0.2616
     43  O        -23.5680   14.5740    6.8240 O.2    52  VAL52      -0.2715
     44  CB       -21.3750   13.2540    8.4440 C.3    52  VAL52       0.0290
     45  CG1      -20.1930   12.3560    8.7770 C.3    52  VAL52       0.0023
     46  CG2      -21.0430   14.6860    8.7760 C.3    52  VAL52       0.0023
     47  N        -23.6490   12.5290    5.7670 N.am   53  ALA53      -0.1963
     48  CA       -25.0140   12.5900    5.2390 C.3    53  ALA53       0.1728
     49  C        -25.3760   11.1880    4.7660 C.2    53  ALA53       0.2617
     50  O        -24.7460   10.6420    3.8460 O.2    53  ALA53      -0.2715
     51  CB       -25.0670   13.5070    4.0300 C.3    53  ALA53       0.0334
     52  N        -26.2810   10.5210    5.4670 N.am   54  GLY54      -0.1940
     53  CA       -26.8020    9.2400    4.9950 C.3    54  GLY54       0.2014
     54  C        -25.7800    8.1350    5.0460 C.2    54  GLY54       0.2639
     55  O        -25.6880    7.4740    6.0780 O.2    54  GLY54      -0.2714
     56  N        -25.0310    7.9260    3.9750 N.am   55  ARG55      -0.1959
     57  CA       -24.2440    6.7320    3.8890 C.3    55  ARG55       0.1772
     58  C        -22.8230    7.0210    3.4470 C.2    55  ARG55       0.2619
     59  O        -22.5880    7.3610    2.2610 O.2    55  ARG55      -0.2715
     60  CB       -24.8290    5.7140    2.8980 C.3    55  ARG55       0.0603
     61  CG       -26.0070    4.8760    3.3830 C.2    55  ARG55       0.0163
     62  CD       -27.2550    5.6210    3.7330 C.2    55  ARG55       0.1886
     63  NE       -28.2380    4.8760    4.5300 N.pl3  55  ARG55      -0.0578
     64  CZ       -28.4230    4.9940    5.8480 C.cat  55  ARG55       0.5393
     65  NH1      -27.5490    5.6240    6.6750 N.pl3  55  ARG55       0.1358
     66  NH2      -29.5360    4.5140    6.3620 N.pl3  55  ARG55       0.1358
     67  N        -21.8990    6.7630    4.3830 N.am   56  LEU56      -0.1964
     68  CA       -20.4490    6.7260    4.2320 C.3    56  LEU56       0.1713
     69  C        -19.7580    8.0290    3.8320 C.2    56  LEU56       0.2458
     70  O        -20.3060    8.8060    3.0430 O.2    56  LEU56      -0.2730
     71  CB       -20.0040    5.5750    3.3080 C.3    56  LEU56       0.0310
     72  CG       -20.3780    4.1640    3.7550 C.3    56  LEU56       0.0022
     73  CD1      -21.4180    3.6220    2.8000 C.3    56  LEU56       0.0001
     74  CD2      -19.2080    3.2120    3.6850 C.3    56  LEU56       0.0001
     75  N        -18.5400    8.3630    4.3470 N.am   57  PRO57      -0.2727
     76  CA       -17.8340    9.5920    4.0010 C.3    57  PRO57       0.1402
     77  C        -17.2980    9.5350    2.5660 C.2    57  PRO57       0.2269
     78  O        -16.8830    8.4770    2.0390 O.2    57  PRO57      -0.2865
     79  CB       -16.7050    9.6010    5.0300 C.3    57  PRO57       0.0296
     80  CG       -16.4530    8.1240    5.2900 C.3    57  PRO57       0.0237
     81  CD       -17.8790    7.6550    5.4450 C.3    57  PRO57       0.0939
     82  N        -33.0740   14.5670   -1.0350 N.3    94  GLY94      -0.1210
     83  CA       -33.1770   13.7550    0.1730 C.3    94  GLY94       0.1956
     84  C        -32.7760   14.6340    1.3410 C.2    94  GLY94       0.2612
     85  O        -33.4600   15.5880    1.7360 O.2    94  GLY94      -0.2717
     86  N        -31.5970   14.3110    1.9180 N.am   95  ALA95      -0.1965
     87  CA       -30.8200   15.1770    2.8060 C.3    95  ALA95       0.1728
     88  C        -31.4600   15.9140    3.9620 C.2    95  ALA95       0.2616
     89  O        -30.7490   16.6530    4.6470 O.2    95  ALA95      -0.2715
     90  CB       -30.0550   16.1870    1.9760 C.3    95  ALA95       0.0334
     91  N        -32.7370   15.6660    4.3380 N.am   96  ASN96      -0.1958
     92  CA       -33.4250   16.4180    5.3910 C.3    96  ASN96       0.1819
     93  C        -32.7010   16.5750    6.7240 C.2    96  ASN96       0.2621
     94  O        -32.6800   17.6640    7.3140 O.2    96  ASN96      -0.2715
     95  CB       -34.8570   15.8920    5.6180 C.3    96  ASN96       0.1195
     96  CG       -35.0540   14.7320    6.5940 C.2    96  ASN96       0.2630
     97  OD1      -35.4890   13.6400    6.2010 O.2    96  ASN96      -0.2716
     98  ND2      -34.9330   14.9100    7.9030 N.am   96  ASN96      -0.0877
     99  N        -32.0780   15.5050    7.1770 N.am   97  ASP97      -0.1957
    100  CA       -31.3780   15.5600    8.4570 C.3    97  ASP97       0.1840
    101  C        -30.0450   16.2830    8.3870 C.2    97  ASP97       0.2622
    102  O        -29.6290   16.9590    9.3110 O.2    97  ASP97      -0.2715
    103  CB       -31.2480   14.1650    9.0270 C.3    97  ASP97       0.1450
    104  CG       -32.5390   13.7970    9.7060 C.2    97  ASP97       0.3671
    105  OD1      -32.8920   14.3980   10.7320 O.co2  97  ASP97      -0.2456
    106  OD2      -33.2340   12.9320    9.2180 O.co2  97  ASP97      -0.2456
    107  N        -29.4120   16.2610    7.2180 N.am   98  THR98      -0.1951
    108  CA       -28.1340   16.9350    7.0190 C.3    98  THR98       0.1897
    109  C        -28.3810   18.4590    6.9760 C.2    98  THR98       0.2313
    110  O        -27.4070   19.2120    7.0090 O.2    98  THR98      -0.2863
    111  CB       -27.5430   16.4030    5.7160 C.3    98  THR98       0.1794
    112  OG1      -27.5890   14.9880    5.7320 O.3    98  THR98      -0.2208
    113  CG2      -26.0810   16.7400    5.6190 C.3    98  THR98       0.0378
    114  N        -28.9560   12.3800   15.9370 N.3   111  ILE111     -0.1245
    115  CA       -27.7410   13.0020   15.4590 C.3   111  ILE111      0.1561
    116  C        -27.4290   14.2760   16.2780 C.2   111  ILE111      0.2260
    117  O        -27.6080   15.4070   15.8800 O.2   111  ILE111     -0.2867
    118  CB       -27.8330   13.2690   13.9280 C.3   111  ILE111      0.0252
    119  CG1      -29.0480   14.0840   13.4960 C.3   111  ILE111      0.0019
    120  CG2      -27.6740   11.9620   13.1900 C.3   111  ILE111      0.0019
    121  CD1      -29.0140   14.4810   11.9970 C.3   111  ILE111      0.0001
    122  N        -25.6030   17.7880   15.1250 N.3   114  MET114     -0.1245
    123  CA       -25.1730   17.6980   13.7340 C.3   114  MET114      0.1570
    124  C        -24.9800   19.0750   13.1020 C.2   114  MET114      0.2261
    125  O        -25.9150   19.8660   13.0860 O.2   114  MET114     -0.2867
    126  CB       -26.1030   16.7850   12.9420 C.3   114  MET114      0.0387
    127  CG       -25.9510   16.7210   11.4330 C.3   114  MET114      0.0595
    128  SD       -24.2610   16.6310   10.8190 S.3   114  MET114     -0.1393
    129  CE       -23.8310   14.9720   11.2560 C.3   114  MET114      0.0692
    130  N        -36.4910   16.8820   -1.4390 N.3   128  PHE128     -0.1227
    131  CA       -36.9830   15.7220   -2.1660 C.3   128  PHE128      0.1736
    132  C        -37.1780   14.6370   -1.1250 C.2   128  PHE128      0.2595
    133  O        -36.2300   13.9520   -0.7350 O.2   128  PHE128     -0.2718
    134  CB       -35.9410   15.1830   -3.1850 C.3   128  PHE128      0.0547
    135  CG       -35.6650   16.0840   -4.4180 C.ar  128  PHE128     -0.0202
    136  CD1      -35.3890   17.4180   -4.2640 C.ar  128  PHE128     -0.0042
    137  CD2      -35.7380   15.5330   -5.6860 C.ar  128  PHE128     -0.0042
    138  CE1      -35.1460   18.2030   -5.3690 C.ar  128  PHE128     -0.0003
    139  CE2      -35.4850   16.3310   -6.7890 C.ar  128  PHE128     -0.0003
    140  CZ       -35.2030   17.6770   -6.6380 C.ar  128  PHE128     -0.0000
    141  N        -38.3950   14.5160   -0.5990 N.am  129  LYS129     -0.1966
    142  CA       -38.8270   13.4600    0.3150 C.3   129  LYS129      0.1728
    143  C        -40.2350   13.1090   -0.0990 C.2   129  LYS129      0.2616
    144  O        -41.1660   13.9410    0.0040 O.2   129  LYS129     -0.2715
    145  CB       -38.8390   13.8850    1.7690 C.3   129  LYS129      0.0311
    146  CG       -37.5340   13.9260    2.5280 C.3   129  LYS129      0.0038
    147  CD       -37.8240   14.3500    3.9430 C.3   129  LYS129      0.0206
    148  CE       -38.6070   13.3630    4.7920 C.3   129  LYS129      0.1093
    149  NZ       -37.8220   12.2940    5.3740 N.3   129  LYS129     -0.1314
    150  N        -40.4590   11.8670   -0.5270 N.am  130  ARG130     -0.1963
    151  CA       -41.7720   11.4310   -0.9070 C.3   130  ARG130      0.1729
    152  C        -42.7930   11.2710    0.2230 C.2   130  ARG130      0.2616
    153  O        -43.9580   10.9510   -0.0380 O.2   130  ARG130     -0.2715
    154  CB       -41.6850   10.1700   -1.7790 C.3   130  ARG130      0.0348
    155  CG       -41.2230    8.9640   -1.0010 C.3   130  ARG130      0.0492
    156  CD       -41.1930    7.6910   -1.8930 C.3   130  ARG130      0.2205
    157  NE       -39.9650    7.6130   -2.6660 N.pl3 130  ARG130     -0.0865
    158  CZ       -38.8080    7.1570   -2.1350 C.cat 130  ARG130      0.5346
    159  NH1      -38.7580    6.7660   -0.8670 N.pl3 130  ARG130      0.1354
    160  NH2      -37.7350    7.0650   -2.9230 N.pl3 130  ARG130      0.1354
    161  N        -42.4000   11.4510    1.4950 N.am  131  SER131     -0.1950
    162  CA       -43.3000   11.4220    2.6180 C.3   131  SER131      0.1924
    163  C        -42.6740   12.1710    3.7550 C.2   131  SER131      0.2314
    164  O        -41.4560   12.3300    3.8970 O.2   131  SER131     -0.2863
    165  CB       -43.4470    9.9970    3.1060 C.3   131  SER131      0.2116
    166  OG       -43.4380    9.0410    2.0750 O.3   131  SER131     -0.2180
    167  N        -41.4800   11.3840    6.4820 N.3   133  ASN133     -0.1240
    168  CA       -41.0430   10.2210    7.2070 C.3   133  ASN133      0.1653
    169  C        -39.7920   10.5770    7.9990 C.2   133  ASN133      0.2266
    170  O        -39.0750   11.5220    7.6330 O.2   133  ASN133     -0.2867
    171  CB       -40.6870    9.0690    6.2320 C.3   133  ASN133      0.1155
    172  CG       -39.2900    9.0420    5.6720 C.2   133  ASN133      0.2627
    173  OD1      -38.7860   10.0500    5.1690 O.2   133  ASN133     -0.2716
    174  ND2      -38.5700    7.9340    5.7460 N.am  133  ASN133     -0.0877
    175  N        -36.0730   10.4890    8.9670 N.3   135  GLY135     -0.1210
    176  CA       -34.7850   10.1830    8.3450 C.3   135  GLY135      0.1956
    177  C        -33.9690    9.5230    9.4500 C.2   135  GLY135      0.2611
    178  O        -34.2580    8.4180    9.9130 O.2   135  GLY135     -0.2717
    179  N        -32.9690   10.2570    9.9350 N.am  136  TYR136     -0.1976
    180  CA       -32.2990    9.9350   11.1860 C.3   136  TYR136      0.1639
    181  C        -33.0390   10.7050   12.3120 C.2   136  TYR136      0.2290
    182  O        -32.7940   10.4740   13.4970 O.2   136  TYR136     -0.2864
    183  CB       -30.8480   10.3990   11.0920 C.3   136  TYR136      0.0560
    184  CG       -29.9000    9.3230   10.5960 C.ar  136  TYR136     -0.0198
    185  CD1      -30.0790    8.7660    9.3430 C.ar  136  TYR136     -0.0009
    186  CD2      -28.8520    8.9310   11.3970 C.ar  136  TYR136     -0.0009
    187  CE1      -29.1860    7.8270    8.8930 C.ar  136  TYR136      0.0417
    188  CE2      -27.9690    7.9760   10.9230 C.ar  136  TYR136      0.0417
    189  CZ       -28.1210    7.4350    9.6760 C.ar  136  TYR136      0.1957
    190  OH       -27.1950    6.4970    9.2380 O.3   136  TYR136     -0.2866
    191  N        -41.7890   13.4190   -4.1190 N.3   154  GLY154     -0.1210
    192  CA       -41.2780   12.6130   -5.2150 C.3   154  GLY154      0.1956
    193  C        -39.9340   12.0160   -4.8300 C.2   154  GLY154      0.2612
    194  O        -39.3210   12.3950   -3.8280 O.2   154  GLY154     -0.2717
    195  N        -39.5970   11.0210   -5.6180 N.am  155  ASP155     -0.1959
    196  CA       -38.2930   10.3910   -5.5200 C.3   155  ASP155      0.1840
    197  C        -37.2580   11.3050   -6.1140 C.2   155  ASP155      0.2621
    198  O        -37.5110   12.0730   -7.0420 O.2   155  ASP155     -0.2715
    199  CB       -38.3500    9.1080   -6.2830 C.3   155  ASP155      0.1450
    200  CG       -37.0520    8.3070   -6.4030 C.2   155  ASP155      0.3671
    201  OD1      -36.7800    7.5340   -5.5070 O.co2 155  ASP155     -0.2456
    202  OD2      -36.3140    8.4760   -7.3740 O.co2 155  ASP155     -0.2456
    203  N        -36.0530   11.0450   -5.5900 N.am  156  ALA156     -0.1977
    204  CA       -34.8330   11.7610   -5.9040 C.3   156  ALA156      0.1597
    205  C        -34.4990   11.6830   -7.3600 C.2   156  ALA156      0.2287
    206  O        -34.3340   12.7240   -8.0100 O.2   156  ALA156     -0.2864
    207  CB       -33.6220   11.3230   -5.0840 C.3   156  ALA156      0.0319
@<TRIPOS>BOND
     1    31    30    2
     2   206   205    2
     3    30    29    1
     4   202   200   ar
     5   205   204    1
     6   198   197    2
     7   139   140   ar
     8   139   137   ar
     9   140   138   ar
    10   200   199    1
    11   200   201   ar
    12    29    32    1
    13    29    28    1
    14   199   196    1
    15   197   203   am
    16   197   196    1
    17   204   203    1
    18   204   207    1
    19   137   135   ar
    20   195   196    1
    21   195   193   am
    22    24    23    2
    23   138   136   ar
    24   192   193    1
    25   192   191    1
    26    28    23   am
    27   193   194    2
    28    23    22    1
    29   135   136   ar
    30   135   134    1
    31    20    19    2
    32    21    22    1
    33    22    25    1
    34    19    18    1
    35   134   131    1
    36   160   158    1
    37   157   158    2
    38   157   156    1
    39   131   130    1
    40   131   132    1
    41    25    26    1
    42    25    27    1
    43   158   159    1
    44    18    17    1
    45   156   155    1
    46   154   155    1
    47   154   151    1
    48     8     7    2
    49   132   133    2
    50   132   141   am
    51    82    83    1
    52   151   150    1
    53   151   152    1
    54    17     7   am
    55     7     6    1
    56   141   142    1
    57   150   143   am
    58     1     2    1
    59   143   144    2
    60   143   142    1
    61   153   152    2
    62    83    84    1
    63   152   161   am
    64   142   145    1
    65     6     5    1
    66     6     9    1
    67     5     3   am
    68     3     2    1
    69     3     4    2
    70    84    85    2
    71    84    86   am
    72    11    13   ar
    73    11    10   ar
    74   161   162    1
    75    13    15   ar
    76   145   146    1
    77     9    10    1
    78    10    12   ar
    79    86    87    1
    80    90    87    1
    81    78    77    2
    82   166   165    1
    83    15    16    1
    84    15    14   ar
    85    59    58    2
    86    12    14   ar
    87   146   147    1
    88    77    76    1
    89   162   165    1
    90   162   163    1
    91    73    72    1
    92    87    88    1
    93    60    61    1
    94    60    57    1
    95    70    69    2
    96    71    72    1
    97    71    68    1
    98    61    62    2
    99    58    57    1
   100    58    67   am
   101    74    72    1
   102    62    63    1
   103   163   164    2
   104    69    68    1
   105    69    75   am
   106    50    49    2
   107    57    56    1
   108   147   148    1
   109    88    91   am
   110    88    89    2
   111    56    54   am
   112    76    75    1
   113    76    79    1
   114    34    33    1
   115    34    37    1
   116    34    35    1
   117    33    39    1
   118    51    48    1
   119    68    67    1
   120    36    35    2
   121    91    92    1
   122    75    81    1
   123    63    64    2
   124    37    38    1
   125    39    38    1
   126    49    48    1
   127    49    52   am
   128   148   149    1
   129    35    40   am
   130    53    54    1
   131    53    52    1
   132    79    80    1
   133    54    55    2
   134   173   172    2
   135    48    47    1
   136    80    81    1
   137    92    95    1
   138    92    93    1
   139    95    96    1
   140   113   111    1
   141   172   174   am
   142   172   171    1
   143   111   112    1
   144   111   108    1
   145    47    42   am
   146    64    66    1
   147    64    65    1
   148    40    41    1
   149    97    96    2
   150   171   168    1
   151   167   168    1
   152    42    43    2
   153    42    41    1
   154    96    98   am
   155    93    99   am
   156    93    94    2
   157    41    44    1
   158   109   110    2
   159   109   108    1
   160   108   107    1
   161    99   100    1
   162   168   169    1
   163   107   101   am
   164   170   169    2
   165   176   175    1
   166   176   177    1
   167   101   100    1
   168   101   102    2
   169    44    46    1
   170    44    45    1
   171   100   103    1
   172   187   185   ar
   173   187   189   ar
   174   103   104    1
   175   106   104   ar
   176   190   189    1
   177   185   184   ar
   178   177   178    2
   179   177   179   am
   180   189   188   ar
   181   104   105   ar
   182   179   180    1
   183   184   183    1
   184   184   186   ar
   185   128   129    1
   186   128   127    1
   187   188   186   ar
   188   183   180    1
   189   180   181    1
   190   127   126    1
   191   121   119    1
   192   181   182    2
   193   126   123    1
   194   125   124    2
   195   124   123    1
   196   120   118    1
   197   119   118    1
   198   123   122    1
   199   118   115    1
   200   115   114    1
   201   115   116    1
   202   117   116    2
