@<TRIPOS>MOLECULE
tmp/2bruB00.pdb
 207 195 0 0 0
SMALL
GASTEIGER

@<TRIPOS>ATOM
      1  N        -17.6630   13.0700   21.6680 N.3   123  ARG123     -0.1231
      2  CA       -17.9780   12.5440   20.3590 C.3   123  ARG123      0.1694
      3  C        -19.4450   12.3940   19.9130 C.2   123  ARG123      0.2592
      4  O        -20.0470   11.3270   19.8660 O.2   123  ARG123     -0.2718
      5  CB       -17.1840   11.2620   20.1750 C.3   123  ARG123      0.0321
      6  CG       -16.0010   11.4700   19.2470 C.3   123  ARG123      0.0489
      7  CD       -15.0940   10.2500   19.2380 C.3   123  ARG123      0.2205
      8  NE       -14.3780   10.1080   20.5010 N.pl3 123  ARG123     -0.0865
      9  CZ       -13.1640   10.6730   20.6480 C.cat 123  ARG123      0.5346
     10  NH1      -12.5390   11.2950   19.6330 N.pl3 123  ARG123      0.1354
     11  NH2      -12.5980   10.6500   21.8600 N.pl3 123  ARG123      0.1354
     12  N        -20.0220   13.5640   19.6630 N.am  124  ILE124     -0.1966
     13  CA       -21.3430   13.6540   19.0470 C.3   124  ILE124      0.1727
     14  C        -21.0710   14.0640   17.6180 C.2   124  ILE124      0.2616
     15  O        -19.9320   13.9780   17.1240 O.2   124  ILE124     -0.2715
     16  CB       -22.2390   14.6660   19.8440 C.3   124  ILE124      0.0290
     17  CG1      -21.7110   16.1100   19.8590 C.3   124  ILE124      0.0022
     18  CG2      -22.4930   14.0940   21.2290 C.3   124  ILE124      0.0023
     19  CD1      -22.6670   17.1310   20.5430 C.3   124  ILE124      0.0001
     20  N        -22.0320   14.5930   16.8800 N.am  125  SER125     -0.1950
     21  CA       -21.8330   14.8580   15.4850 C.3   125  SER125      0.1924
     22  C        -20.9650   16.0530   15.0930 C.2   125  SER125      0.2314
     23  O        -20.0590   15.8420   14.2760 O.2   125  SER125     -0.2863
     24  CB       -23.2330   14.8850   14.8950 C.3   125  SER125      0.2116
     25  OG       -23.9280   13.6710   15.1720 O.3   125  SER125     -0.2180
     26  N        -17.2540   15.3760   15.6830 N.3   128  GLN128     -0.1245
     27  CA       -16.4990   14.6690   14.6800 C.3   128  GLN128      0.1566
     28  C        -15.8220   15.5730   13.6410 C.2   128  GLN128      0.2260
     29  O        -14.6690   15.2890   13.2990 O.2   128  GLN128     -0.2867
     30  CB       -17.3100   13.6050   14.0010 C.3   128  GLN128      0.0367
     31  CG       -17.5440   12.4630   14.9250 C.3   128  GLN128      0.0905
     32  CD       -16.4100   11.4250   14.9140 C.2   128  GLN128      0.2608
     33  OE1      -16.4790   10.5220   14.1050 O.2   128  GLN128     -0.2717
     34  NE2      -15.4090   11.5770   15.7600 N.am  128  GLN128     -0.0878
     35  N        -11.4550   11.4070   14.4120 N.3   134  SER134     -0.1217
     36  CA       -12.2840   11.0100   13.2860 C.3   134  SER134      0.1889
     37  C        -11.3890   10.8690   12.0760 C.2   134  SER134      0.2288
     38  O        -11.1740    9.7780   11.5270 O.2   134  SER134     -0.2866
     39  CB       -13.4460   11.9820   12.9940 C.3   134  SER134      0.2089
     40  OG       -13.0420   13.2610   12.5110 O.3   134  SER134     -0.2183
     41  N         -8.7910    8.1520   12.3400 N.3   137  ALA137     -0.1245
     42  CA        -9.3510    6.8430   12.0680 C.3   137  ALA137      0.1562
     43  C         -9.5970    6.7060   10.5770 C.2   137  ALA137      0.2260
     44  O         -9.2630    5.6770    9.9870 O.2   137  ALA137     -0.2867
     45  CB       -10.6870    6.7300   12.7540 C.3   137  ALA137      0.0290
     46  N        -14.1750   -4.9010   10.9480 N.3   174  ILE174     -0.1231
     47  CA       -14.7980   -5.0740   12.2340 C.3   174  ILE174      0.1692
     48  C        -14.7870   -3.7080   12.9220 C.2   174  ILE174      0.2592
     49  O        -13.7360   -3.1250   13.2250 O.2   174  ILE174     -0.2718
     50  CB       -14.0340   -6.0820   13.0960 C.3   174  ILE174      0.0266
     51  CG1      -13.9600   -7.4360   12.3720 C.3   174  ILE174      0.0019
     52  CG2      -14.6760   -6.2320   14.5030 C.3   174  ILE174      0.0020
     53  CD1      -13.0600   -8.4120   13.1390 C.3   174  ILE174      0.0001
     54  N        -15.9670   -3.1590   13.1430 N.am  175  GLY175     -0.1957
     55  CA       -16.0940   -1.8690   13.7260 C.3   175  GLY175      0.1869
     56  C        -16.2240   -0.8480   12.6120 C.2   175  GLY175      0.2309
     57  O        -15.3990    0.0400   12.4140 O.2   175  GLY175     -0.2863
     58  N        -17.6340    1.8960   12.2390 N.3   177  GLY177     -0.1210
     59  CA       -17.5440    3.3180   12.5420 C.3   177  GLY177      0.1956
     60  C        -16.2930    4.0120   12.0210 C.2   177  GLY177      0.2611
     61  O        -15.1660    3.5120   12.1430 O.2   177  GLY177     -0.2717
     62  N        -16.5270    5.1080   11.3260 N.am  178  VAL178     -0.1979
     63  CA       -15.5340    6.1020   10.8460 C.3   178  VAL178      0.1595
     64  C        -14.4510    5.4410    9.9890 C.2   178  VAL178      0.2287
     65  O        -14.5880    5.4300    8.7670 O.2   178  VAL178     -0.2864
     66  CB       -14.8940    6.9380   12.0120 C.3   178  VAL178      0.0276
     67  CG1      -14.0310    8.0520   11.4350 C.3   178  VAL178      0.0022
     68  CG2      -15.9650    7.5430   12.9300 C.3   178  VAL178      0.0022
     69  N        -16.0420    2.6840    7.9810 N.3   181  LEU181     -0.1245
     70  CA       -16.6850    3.2910    6.8050 C.3   181  LEU181      0.1561
     71  C        -15.7000    3.6760    5.6860 C.2   181  LEU181      0.2260
     72  O        -15.9560    3.3920    4.5050 O.2   181  LEU181     -0.2867
     73  CB       -17.4770    4.5710    7.1590 C.3   181  LEU181      0.0270
     74  CG       -18.6740    4.4440    8.0950 C.3   181  LEU181      0.0019
     75  CD1      -19.2330    5.8000    8.3970 C.3   181  LEU181      0.0001
     76  CD2      -19.7840    3.5510    7.5480 C.3   181  LEU181      0.0001
     77  N        -19.0530   -5.3740    9.9890 N.3   197  PHE197     -0.1227
     78  CA       -19.7060   -5.6240   11.2430 C.3   197  PHE197      0.1736
     79  C        -19.5660   -4.3650   12.0800 C.2   197  PHE197      0.2595
     80  O        -18.4920   -3.7410   12.1240 O.2   197  PHE197     -0.2718
     81  CB       -19.0630   -6.8250   11.9190 C.3   197  PHE197      0.0547
     82  CG       -19.7950   -7.3330   13.1500 C.ar  197  PHE197     -0.0202
     83  CD1      -21.0880   -7.7640   13.0500 C.ar  197  PHE197     -0.0042
     84  CD2      -19.1680   -7.3300   14.3820 C.ar  197  PHE197     -0.0042
     85  CE1      -21.7740   -8.2430   14.1550 C.ar  197  PHE197     -0.0003
     86  CE2      -19.8600   -7.7940   15.4870 C.ar  197  PHE197     -0.0003
     87  CZ       -21.1480   -8.2590   15.3740 C.ar  197  PHE197     -0.0000
     88  N        -20.6620   -3.9470   12.6660 N.am  198  ASP198     -0.1960
     89  CA       -20.6130   -2.9370   13.6980 C.3   198  ASP198      0.1840
     90  C        -21.8860   -3.0700   14.4840 C.2   198  ASP198      0.2623
     91  O        -22.8890   -3.5610   13.9780 O.2   198  ASP198     -0.2715
     92  CB       -20.4550   -1.5460   13.1030 C.3   198  ASP198      0.1450
     93  CG       -20.2570   -0.3790   14.0730 C.2   198  ASP198      0.3671
     94  OD1      -21.1630    0.0060   14.8380 O.co2 198  ASP198     -0.2456
     95  OD2      -19.2290    0.2360   14.0680 O.co2 198  ASP198     -0.2456
     96  N        -21.8410   -2.6830   15.7580 N.am  199  THR199     -0.1937
     97  CA       -22.9750   -2.8140   16.6300 C.3   199  THR199      0.2028
     98  C        -24.2030   -1.9770   16.1960 C.2   199  THR199      0.2642
     99  O        -25.3240   -2.5030   16.1780 O.2   199  THR199     -0.2714
    100  CB       -22.5300   -2.5150   18.0640 C.3   199  THR199      0.1808
    101  OG1      -21.6030   -1.4500   18.0030 O.3   199  THR199     -0.2208
    102  CG2      -21.7880   -3.6710   18.7020 C.3   199  THR199      0.0379
    103  N        -24.0050   -0.7020   15.7980 N.am  200  ARG200     -0.1977
    104  CA       -25.1440    0.1800   15.6190 C.3   200  ARG200      0.1597
    105  C        -25.9150   -0.1520   14.3670 C.2   200  ARG200      0.2287
    106  O        -25.2880   -0.2780   13.2910 O.2   200  ARG200     -0.2864
    107  CB       -24.6430    1.6070   15.5580 C.3   200  ARG200      0.0334
    108  CG       -23.9470    2.0050   16.8760 C.3   200  ARG200      0.0492
    109  CD       -22.9600    3.1460   16.5360 C.3   200  ARG200      0.2205
    110  NE       -21.9140    2.7010   15.6370 N.pl3 200  ARG200     -0.0865
    111  CZ       -21.5320    3.4010   14.5760 C.cat 200  ARG200      0.5346
    112  NH1      -21.9320    4.6620   14.3480 N.pl3 200  ARG200      0.1354
    113  NH2      -20.7670    2.7580   13.6940 N.pl3 200  ARG200      0.1354
    114  N        -24.9400   -5.4260   24.9790 N.3   219  MET219     -0.1230
    115  CA       -24.2220   -6.5850   24.5390 C.3   219  MET219      0.1702
    116  C        -22.8570   -6.0490   24.0860 C.2   219  MET219      0.2593
    117  O        -22.8620   -5.2140   23.1730 O.2   219  MET219     -0.2718
    118  CB       -24.8900   -7.1920   23.3240 C.3   219  MET219      0.0401
    119  CG       -26.3440   -7.6360   23.4170 C.3   219  MET219      0.0596
    120  SD       -26.5110   -9.2150   24.2660 S.3   219  MET219     -0.1393
    121  CE       -27.1850  -10.0230   22.8490 C.3   219  MET219      0.0692
    122  N        -21.6260   -6.2630   24.5620 N.am  220  SER220     -0.1952
    123  CA       -21.2860   -6.8100   25.8790 C.3   220  SER220      0.1924
    124  C        -21.3860   -8.3300   26.0990 C.2   220  SER220      0.2314
    125  O        -21.4730   -9.1020   25.1340 O.2   220  SER220     -0.2863
    126  CB       -21.9680   -6.0380   27.0430 C.3   220  SER220      0.2116
    127  OG       -21.9100   -4.6170   26.7700 O.3   220  SER220     -0.2180
    128  N        -20.1000  -10.8040   23.1900 N.3   224  ILE224     -0.1245
    129  CA       -18.6670  -10.7540   22.9260 C.3   224  ILE224      0.1561
    130  C        -18.1050  -12.1010   22.4260 C.2   224  ILE224      0.2260
    131  O        -17.3020  -12.1630   21.4920 O.2   224  ILE224     -0.2867
    132  CB       -17.8580  -10.2970   24.1840 C.3   224  ILE224      0.0252
    133  CG1      -18.1980  -11.0760   25.4320 C.3   224  ILE224      0.0019
    134  CG2      -18.0630   -8.7960   24.3320 C.3   224  ILE224      0.0019
    135  CD1      -17.0780  -11.1070   26.5070 C.3   224  ILE224      0.0001
    136  N        -19.3910  -12.7930   18.9050 N.3   227  GLU227     -0.1245
    137  CA       -18.6410  -11.9510   17.9630 C.3   227  GLU227      0.1567
    138  C        -17.3950  -12.7410   17.5600 C.2   227  GLU227      0.2260
    139  O        -17.1470  -12.9090   16.3750 O.2   227  GLU227     -0.2867
    140  CB       -18.2360  -10.6380   18.6340 C.3   227  GLU227      0.0388
    141  CG       -19.4070   -9.7190   18.9720 C.3   227  GLU227      0.1160
    142  CD       -19.0800   -8.3900   19.6240 C.2   227  GLU227      0.3649
    143  OE1      -18.1550   -8.2850   20.4090 O.co2 227  GLU227     -0.2457
    144  OE2      -19.8070   -7.4420   19.4380 O.co2 227  GLU227     -0.2457
    145  N        -11.1140   -2.4590   13.4870 N.3   244  THR244     -0.1203
    146  CA       -11.3610   -1.0960   13.9580 C.3   244  THR244      0.1994
    147  C        -11.9700   -1.1440   15.3500 C.2   244  THR244      0.2618
    148  O        -11.7760   -0.1840   16.0980 O.2   244  THR244     -0.2717
    149  CB       -12.2760   -0.3870   12.9550 C.3   244  THR244      0.1784
    150  OG1      -11.6760   -0.6460   11.6640 O.3   244  THR244     -0.2211
    151  CG2      -12.3740    1.1090   13.1740 C.3   244  THR244      0.0376
    152  N        -12.6910   -2.1760   15.8060 N.am  245  ALA245     -0.1965
    153  CA       -13.4800   -2.2210   17.0260 C.3   245  ALA245      0.1728
    154  C        -12.8280   -1.7230   18.3120 C.2   245  ALA245      0.2616
    155  O        -12.0880   -2.4380   19.0340 O.2   245  ALA245     -0.2715
    156  CB       -13.9780   -3.6070   17.2750 C.3   245  ALA245      0.0334
    157  N        -13.1440   -0.4540   18.5900 N.am  246  LEU246     -0.1963
    158  CA       -12.5360    0.2670   19.6950 C.3   246  LEU246      0.1728
    159  C        -13.7470    0.9200   20.3460 C.2   246  LEU246      0.2616
    160  O        -14.7370    1.2850   19.6740 O.2   246  LEU246     -0.2715
    161  CB       -11.5210    1.2810   19.1450 C.3   246  LEU246      0.0311
    162  CG       -10.4040    1.8480   20.0040 C.3   246  LEU246      0.0022
    163  CD1       -9.5420    2.7340   19.1120 C.3   246  LEU246      0.0001
    164  CD2      -10.8580    2.7190   21.1760 C.3   246  LEU246      0.0001
    165  N        -13.7040    1.0480   21.6520 N.am  247  ILE247     -0.1964
    166  CA       -14.7750    1.7090   22.4070 C.3   247  ILE247      0.1712
    167  C        -13.9850    2.8670   23.0380 C.2   247  ILE247      0.2458
    168  O        -13.0300    2.5980   23.7640 O.2   247  ILE247     -0.2730
    169  CB       -15.3010    0.7420   23.4860 C.3   247  ILE247      0.0289
    170  CG1      -15.8960   -0.5540   22.9280 C.3   247  ILE247      0.0022
    171  CG2      -16.3690    1.4430   24.2970 C.3   247  ILE247      0.0023
    172  CD1      -16.0070   -1.6810   23.9930 C.3   247  ILE247      0.0001
    173  N        -14.3330    4.1420   22.8290 N.am  248  PRO248     -0.2727
    174  CA       -13.5430    5.2800   23.2970 C.3   248  PRO248      0.1402
    175  C        -13.2530    5.3130   24.8040 C.2   248  PRO248      0.2269
    176  O        -14.1650    5.1730   25.6430 O.2   248  PRO248     -0.2865
    177  CB       -14.3660    6.4860   22.8220 C.3   248  PRO248      0.0296
    178  CG       -15.8000    5.9750   22.7510 C.3   248  PRO248      0.0237
    179  CD       -15.5620    4.6000   22.2040 C.3   248  PRO248      0.0939
    180  N        -11.0300   -4.6400   22.6780 N.3   253  PRO253     -0.2116
    181  CA       -11.2640   -6.0320   23.0560 C.3   253  PRO253      0.1372
    182  C        -10.5290   -6.9950   22.1700 C.2   253  PRO253      0.2244
    183  O        -10.3730   -6.7670   20.9600 O.2   253  PRO253     -0.2868
    184  CB       -12.7670   -6.2060   22.9280 C.3   253  PRO253      0.0268
    185  CG       -13.0950   -5.2400   21.8140 C.3   253  PRO253      0.0207
    186  CD       -12.2560   -4.0330   22.2100 C.3   253  PRO253      0.0892
    187  N        -10.6810   -9.4830   20.2190 N.3   255  LEU255     -0.1245
    188  CA       -11.6500  -10.2150   19.4590 C.3   255  LEU255      0.1561
    189  C        -10.9950  -11.1090   18.4230 C.2   255  LEU255      0.2260
    190  O        -11.5100  -12.1510   18.0460 O.2   255  LEU255     -0.2867
    191  CB       -12.6520   -9.2990   18.8460 C.3   255  LEU255      0.0270
    192  CG       -13.5150   -8.4640   19.7650 C.3   255  LEU255      0.0019
    193  CD1      -14.3560   -7.4730   19.0060 C.3   255  LEU255      0.0001
    194  CD2      -14.4600   -9.3890   20.5800 C.3   255  LEU255      0.0001
    195  N        -23.2570   10.7870   24.6960 N.3   364  VAL364     -0.1231
    196  CA       -22.8760   10.4110   23.3570 C.3   364  VAL364      0.1692
    197  C        -23.7630    9.2070   23.0380 C.2   364  VAL364      0.2592
    198  O        -23.6870    8.1830   23.7160 O.2   364  VAL364     -0.2718
    199  CB       -21.3210   10.0620   23.3880 C.3   364  VAL364      0.0266
    200  CG1      -20.7890    9.2410   22.2130 C.3   364  VAL364      0.0020
    201  CG2      -20.5000   11.3640   23.5520 C.3   364  VAL364      0.0020
    202  N        -24.5500    9.3530   22.0340 N.am  365  SER365     -0.1952
    203  CA       -25.3810    8.2190   21.5950 C.3   365  SER365      0.1924
    204  C        -24.8340    7.9130   20.1790 C.2   365  SER365      0.2314
    205  O        -25.6100    7.5370   19.3300 O.2   365  SER365     -0.2863
    206  CB       -26.8590    8.6620   21.5560 C.3   365  SER365      0.2116
    207  OG       -27.1030    9.7250   20.6610 O.3   365  SER365     -0.2180
@<TRIPOS>BOND
     1    72    71    2
     2    71    70    1
     3    70    73    1
     4    70    69    1
     5    73    74    1
     6    76    74    1
     7    74    75    1
     8    65    64    2
     9    44    43    2
    10    77    78    1
    11    64    63    1
    12    43    42    1
    13    63    62    1
    14    63    66    1
    15    46    47    1
    16    78    81    1
    17    78    79    1
    18    62    60   am
    19    67    66    1
    20    38    37    2
    21   150   149    1
    22    81    82    1
    23    66    68    1
    24    60    61    2
    25    60    59    1
    26    42    41    1
    27    42    45    1
    28    37    36    1
    29    79    80    2
    30    79    88   am
    31    47    48    1
    32    47    50    1
    33    58    59    1
    34    51    50    1
    35    51    53    1
    36    57    56    2
    37    40    39    1
    38    56    55    1
    39    88    89    1
    40    48    54   am
    41    48    49    2
    42   149   151    1
    43   149   146    1
    44    39    36    1
    45    83    82   ar
    46    83    85   ar
    47    50    52    1
    48    92    89    1
    49    92    93    1
    50    54    55    1
    51    82    84   ar
    52    36    35    1
    53   106   105    2
    54    29    28    2
    55   145   146    1
    56    28    27    1
    57   113   111    1
    58    89    90    1
    59   146   147    1
    60    91    90    2
    61    30    27    1
    62    30    31    1
    63    95    93   ar
    64    93    94   ar
    65    33    32    2
    66    85    87   ar
    67    23    22    2
    68   112   111    1
    69   105   104    1
    70    84    86   ar
    71    90    96   am
    72   111   110    2
    73    27    26    1
    74    24    25    1
    75    24    21    1
    76    32    31    1
    77    32    34   am
    78    22    21    1
    79   147   152   am
    80   147   148    2
    81    87    86   ar
    82    21    20    1
    83   107   104    1
    84   107   108    1
    85   104   103    1
    86   110   109    1
    87    96    97    1
    88   103    98   am
    89   152   153    1
    90    99    98    2
    91    98    97    1
    92   139   138    2
    93   109   108    1
    94    97   100    1
    95    20    14   am
    96   153   156    1
    97   153   154    1
    98    15    14    2
    99   138   137    1
   100    14    13    1
   101   137   140    1
   102   137   136    1
   103   101   100    1
   104   190   189    2
   105   100   102    1
   106   154   157   am
   107   154   155    2
   108   189   188    1
   109   157   158    1
   110   140   141    1
   111   191   188    1
   112   191   192    1
   113   141   142    1
   114   193   192    1
   115    13    12    1
   116    13    16    1
   117   163   162    1
   118   161   158    1
   119   161   162    1
   120     7     6    1
   121     7     8    1
   122     6     5    1
   123   205   204    2
   124   144   142   ar
   125   188   187    1
   126   142   143   ar
   127    10     9    1
   128    12     3   am
   129   160   159    2
   130   158   159    1
   131   192   194    1
   132    16    17    1
   133    16    18    1
   134    17    19    1
   135     4     3    2
   136     3     2    1
   137   162   164    1
   138     5     2    1
   139   204   203    1
   140   159   165   am
   141     2     1    1
   142     8     9    2
   143     9    11    1
   144   207   206    1
   145   183   182    2
   146   131   130    2
   147   206   203    1
   148   203   202    1
   149   165   166    1
   150   185   186    1
   151   185   184    1
   152   202   197   am
   153   182   181    1
   154   179   178    1
   155   179   173    1
   156   186   180    1
   157   200   199    1
   158   166   167    1
   159   166   169    1
   160   130   129    1
   161   180   181    1
   162   178   177    1
   163   177   174    1
   164   173   167   am
   165   173   174    1
   166   121   120    1
   167   129   128    1
   168   129   132    1
   169   184   181    1
   170   170   169    1
   171   170   172    1
   172   167   168    2
   173   197   196    1
   174   197   198    2
   175   117   116    2
   176   174   175    1
   177   118   119    1
   178   118   115    1
   179   196   199    1
   180   196   195    1
   181   199   201    1
   182   119   120    1
   183   169   171    1
   184   116   115    1
   185   116   122   am
   186   132   134    1
   187   132   133    1
   188   115   114    1
   189   122   123    1
   190   175   176    2
   191   125   124    2
   192   133   135    1
   193   123   124    1
   194   123   126    1
   195   127   126    1
