@<TRIPOS>MOLECULE
tmp/2bs3C02.pdb
 113 114 0 0 0
SMALL
GASTEIGER

@<TRIPOS>ATOM
      1  N         24.4520    1.4120  -23.9810 N.3   101  PHE101     -0.1228
      2  CA        25.6230    2.2670  -24.1990 C.3   101  PHE101      0.1721
      3  C         25.9880    3.0790  -22.9590 C.2   101  PHE101      0.2437
      4  O         25.1300    3.3820  -22.1280 O.2   101  PHE101     -0.2733
      5  CB        25.3670    3.3340  -25.2800 C.3   101  PHE101      0.0547
      6  CG        25.2520    2.8130  -26.6850 C.ar  101  PHE101     -0.0202
      7  CD1       26.0960    1.8180  -27.1570 C.ar  101  PHE101     -0.0042
      8  CD2       24.3380    3.3890  -27.5640 C.ar  101  PHE101     -0.0042
      9  CE1       26.0340    1.4040  -28.4850 C.ar  101  PHE101     -0.0003
     10  CE2       24.2670    2.9830  -28.8960 C.ar  101  PHE101     -0.0003
     11  CZ        25.1160    1.9890  -29.3570 C.ar  101  PHE101     -0.0000
     12  N         27.2780    3.4250  -22.8080 N.am  102  PRO102     -0.2718
     13  CA        27.6330    4.2420  -21.6430 C.3   102  PRO102      0.1535
     14  C         26.8800    5.5090  -22.0720 C.2   102  PRO102      0.2598
     15  O         26.9040    5.8510  -23.2570 O.2   102  PRO102     -0.2715
     16  CB        29.1410    4.4030  -21.7850 C.3   102  PRO102      0.0310
     17  CG        29.5540    3.1140  -22.4570 C.3   102  PRO102      0.0237
     18  CD        28.4780    2.9270  -23.5020 C.3   102  PRO102      0.0939
     19  N         26.2220    6.2130  -21.1600 N.am  103  ILE103     -0.1964
     20  CA        25.4320    7.3540  -21.6050 C.3   103  ILE103      0.1727
     21  C         25.8330    8.7610  -21.1560 C.2   103  ILE103      0.2616
     22  O         25.1470    9.7330  -21.4790 O.2   103  ILE103     -0.2715
     23  CB        23.9380    7.0990  -21.2720 C.3   103  ILE103      0.0290
     24  CG1       23.0550    7.8070  -22.2970 C.3   103  ILE103      0.0022
     25  CG2       23.6290    7.5310  -19.8360 C.3   103  ILE103      0.0023
     26  CD1       23.2250    7.2670  -23.7130 C.3   103  ILE103      0.0001
     27  N         26.9200    8.8740  -20.4000 N.am  104  ASN104     -0.1958
     28  CA        27.4100   10.1790  -19.9750 C.3   104  ASN104      0.1819
     29  C         28.9270   10.1290  -19.8080 C.2   104  ASN104      0.2621
     30  O         29.5290    9.0550  -19.8510 O.2   104  ASN104     -0.2715
     31  CB        26.7310   10.6480  -18.6760 C.3   104  ASN104      0.1195
     32  CG        26.8710    9.6550  -17.5340 C.2   104  ASN104      0.2630
     33  OD1       27.9650    9.1940  -17.2220 O.2   104  ASN104     -0.2716
     34  ND2       25.7520    9.3400  -16.8900 N.am  104  ASN104     -0.0877
     35  N         29.5360   11.2970  -19.6450 N.am  105  TYR105     -0.1974
     36  CA        30.9790   11.4100  -19.4890 C.3   105  TYR105      0.1639
     37  C         31.5480   10.4540  -18.4400 C.2   105  TYR105      0.2290
     38  O         32.4990    9.7230  -18.7130 O.2   105  TYR105     -0.2864
     39  CB        31.3530   12.8490  -19.1280 C.3   105  TYR105      0.0560
     40  CG        32.8140   13.0240  -18.7900 C.ar  105  TYR105     -0.0198
     41  CD1       33.8050   12.8100  -19.7520 C.ar  105  TYR105     -0.0009
     42  CD2       33.2120   13.3680  -17.5000 C.ar  105  TYR105     -0.0009
     43  CE1       35.1590   12.9310  -19.4320 C.ar  105  TYR105      0.0417
     44  CE2       34.5580   13.4910  -17.1720 C.ar  105  TYR105      0.0417
     45  CZ        35.5240   13.2700  -18.1400 C.ar  105  TYR105      0.1957
     46  OH        36.8510   13.3660  -17.8030 O.3   105  TYR105     -0.2866
     47  N         31.3660    6.8050  -19.5540 N.3   108  TYR108     -0.1227
     48  CA        32.3040    6.6130  -20.6480 C.3   108  TYR108      0.1736
     49  C         33.7430    6.5820  -20.1520 C.2   108  TYR108      0.2595
     50  O         34.4950    5.6730  -20.4840 O.2   108  TYR108     -0.2718
     51  CB        32.1260    7.7240  -21.6890 C.3   108  TYR108      0.0548
     52  CG        33.0110    7.5760  -22.9060 C.ar  108  TYR108     -0.0200
     53  CD1       34.3550    7.9510  -22.8660 C.ar  108  TYR108     -0.0009
     54  CD2       32.5060    7.0590  -24.0980 C.ar  108  TYR108     -0.0009
     55  CE1       35.1750    7.8200  -23.9840 C.ar  108  TYR108      0.0417
     56  CE2       33.3200    6.9210  -25.2280 C.ar  108  TYR108      0.0417
     57  CZ        34.6520    7.3060  -25.1600 C.ar  108  TYR108      0.1957
     58  OH        35.4610    7.1910  -26.2690 O.3   108  TYR108     -0.2866
     59  N         34.1170    7.5740  -19.3490 N.am  109  LEU109     -0.1980
     60  CA        35.4690    7.6560  -18.8150 C.3   109  LEU109      0.1596
     61  C         35.8510    6.4590  -17.9480 C.2   109  LEU109      0.2287
     62  O         36.8880    5.8320  -18.1730 O.2   109  LEU109     -0.2864
     63  CB        35.6420    8.9340  -17.9930 C.3   109  LEU109      0.0297
     64  CG        36.9740    9.0350  -17.2420 C.3   109  LEU109      0.0022
     65  CD1       38.1020    9.2620  -18.2410 C.3   109  LEU109      0.0001
     66  CD2       36.9230   10.1710  -16.2260 C.3   109  LEU109      0.0001
     67  N         35.9170    3.1170  -20.0280 N.3   112  LYS112     -0.1245
     68  CA        37.0610    3.0990  -20.9340 C.3   112  LYS112      0.1561
     69  C         38.3480    2.8490  -20.1540 C.2   112  LYS112      0.2260
     70  O         39.2020    2.0700  -20.5830 O.2   112  LYS112     -0.2867
     71  CB        37.1560    4.4230  -21.6990 C.3   112  LYS112      0.0271
     72  CG        38.2030    4.4240  -22.8050 C.3   112  LYS112      0.0035
     73  CD        38.1680    5.7160  -23.6140 C.3   112  LYS112      0.0206
     74  CE        38.4380    6.9330  -22.7410 C.3   112  LYS112      0.1093
     75  NZ        39.7730    6.8620  -22.0860 N.3   112  LYS112     -0.1314
     76  N         33.0010   -3.6490  -25.7990 N.3   127  TRP127     -0.1241
     77  CA        33.2830   -2.2870  -26.2320 C.3   127  TRP127      0.1605
     78  C         33.2130   -2.2510  -27.7630 C.2   127  TRP127      0.2264
     79  O         32.6380   -1.3360  -28.3470 O.2   127  TRP127     -0.2867
     80  CB        34.6720   -1.8720  -25.7380 C.3   127  TRP127      0.0550
     81  CG        35.0800   -0.4800  -26.1050 C.ar  127  TRP127      0.0003
     82  CD1       36.0410   -0.1200  -27.0060 C.ar  127  TRP127      0.0946
     83  CD2       34.5590    0.7430  -25.5660 C.ar  127  TRP127      0.0152
     84  NE1       36.1540    1.2480  -27.0600 N.ar  127  TRP127     -0.2442
     85  CE2       35.2560    1.8030  -26.1870 C.ar  127  TRP127      0.0810
     86  CE3       33.5730    1.0450  -24.6150 C.ar  127  TRP127      0.0012
     87  CZ2       34.9990    3.1500  -25.8900 C.ar  127  TRP127      0.0191
     88  CZ3       33.3160    2.3850  -24.3160 C.ar  127  TRP127      0.0001
     89  CH2       34.0290    3.4210  -24.9540 C.ar  127  TRP127      0.0015
     90  N         29.6740   -2.2940  -28.8890 N.3   130  ALA130     -0.1231
     91  CA        29.0720   -0.9720  -28.7550 C.3   130  ALA130      0.1694
     92  C         29.5250   -0.0190  -29.8550 C.2   130  ALA130      0.2591
     93  O         28.7090    0.6900  -30.4390 O.2   130  ALA130     -0.2718
     94  CB        29.4070   -0.3840  -27.3810 C.3   130  ALA130      0.0304
     95  N         30.8270    0.0010  -30.1250 N.am  131  MET131     -0.1979
     96  CA        31.3880    0.8720  -31.1560 C.3   131  MET131      0.1605
     97  C         30.8370    0.5450  -32.5370 C.2   131  MET131      0.2287
     98  O         30.3830    1.4320  -33.2510 O.2   131  MET131     -0.2864
     99  CB        32.9160    0.7520  -31.1930 C.3   131  MET131      0.0413
    100  CG        33.6290    1.3260  -29.9870 C.3   131  MET131      0.0598
    101  SD        35.4220    1.2540  -30.1680 S.3   131  MET131     -0.1393
    102  CE        35.7040    2.6290  -31.2820 C.3   131  MET131      0.0692
    103  N         27.1660    1.5100  -32.8480 N.3   134  PHE134     -0.1241
    104  CA        26.9590    2.9370  -33.0890 C.3   134  PHE134      0.1605
    105  C         27.2810    3.3040  -34.5410 C.2   134  PHE134      0.2264
    106  O         26.5660    4.0810  -35.1720 O.2   134  PHE134     -0.2867
    107  CB        27.8360    3.7700  -32.1520 C.3   134  PHE134      0.0534
    108  CG        27.6530    5.2510  -32.3160 C.ar  134  PHE134     -0.0203
    109  CD1       26.4630    5.8650  -31.9350 C.ar  134  PHE134     -0.0042
    110  CD2       28.6560    6.0270  -32.8860 C.ar  134  PHE134     -0.0042
    111  CE1       26.2740    7.2330  -32.1200 C.ar  134  PHE134     -0.0003
    112  CE2       28.4770    7.3950  -33.0780 C.ar  134  PHE134     -0.0003
    113  CZ        27.2830    8.0010  -32.6940 C.ar  134  PHE134     -0.0000
@<TRIPOS>BOND
     1   106   105    2
     2   105   104    1
     3    98    97    2
     4   104   103    1
     5   104   107    1
     6   112   110   ar
     7   112   113   ar
     8   110   108   ar
     9   113   111   ar
    10    97    96    1
    11   108   107    1
    12   108   109   ar
    13   111   109   ar
    14   102   101    1
    15    99    96    1
    16    99   100    1
    17    96    95    1
    18    93    92    2
    19   101   100    1
    20    95    92   am
    21    92    91    1
    22    11    10   ar
    23    11     9   ar
    24    10     8   ar
    25    90    91    1
    26    91    94    1
    27     9     7   ar
    28    79    78    2
    29    78    77    1
    30     8     6   ar
    31     7     6   ar
    32    84    82   ar
    33    84    85   ar
    34    82    81   ar
    35     6     5    1
    36    58    57    1
    37    77    76    1
    38    77    80    1
    39    85    87   ar
    40    85    83   ar
    41    81    80    1
    42    81    83   ar
    43    87    89   ar
    44    83    86   ar
    45     5     2    1
    46    56    57   ar
    47    56    54   ar
    48    57    55   ar
    49    89    88   ar
    50    86    88   ar
    51     2     1    1
    52     2     3    1
    53    54    52   ar
    54    55    53   ar
    55    26    24    1
    56    73    72    1
    57    73    74    1
    58    18    12    1
    59    18    17    1
    60    15    14    2
    61     3    12   am
    62     3     4    2
    63    52    53   ar
    64    52    51    1
    65    12    13    1
    66    72    71    1
    67    74    75    1
    68    17    16    1
    69    24    23    1
    70    14    13    1
    71    14    19   am
    72    16    13    1
    73    71    68    1
    74    51    48    1
    75    20    23    1
    76    20    19    1
    77    20    21    1
    78    22    21    2
    79    23    25    1
    80    21    27   am
    81    68    69    1
    82    68    67    1
    83    48    49    1
    84    48    47    1
    85    70    69    2
    86    50    49    2
    87    27    28    1
    88    49    59   am
    89    28    29    1
    90    28    31    1
    91    30    29    2
    92    29    35   am
    93    41    43   ar
    94    41    40   ar
    95    35    36    1
    96    36    39    1
    97    36    37    1
    98    43    45   ar
    99    59    60    1
   100    39    40    1
   101    60    63    1
   102    60    61    1
   103    40    42   ar
   104    38    37    2
   105    31    32    1
   106    65    64    1
   107    62    61    2
   108    45    46    1
   109    45    44   ar
   110    63    64    1
   111    32    33    2
   112    32    34   am
   113    42    44   ar
   114    64    66    1
