@<TRIPOS>MOLECULE
tmp/2bs3C00.pdb
 228 218 0 0 0
SMALL
GASTEIGER

@<TRIPOS>ATOM
      1  N         15.3560   -7.9030  -27.1450 N.3    30  GLN30      -0.1231
      2  CA        16.6490   -7.3830  -27.5660 C.3    30  GLN30       0.1698
      3  C         17.4770   -8.5500  -28.1000 C.2    30  GLN30       0.2592
      4  O         18.1090   -8.4530  -29.1530 O.2    30  GLN30      -0.2718
      5  CB        17.4070   -6.7350  -26.4050 C.3    30  GLN30       0.0381
      6  CG        18.7970   -6.2780  -26.8230 C.3    30  GLN30       0.0905
      7  CD        19.6970   -5.9030  -25.6550 C.2    30  GLN30       0.2608
      8  OE1       19.4610   -4.9130  -24.9640 O.2    30  GLN30      -0.2717
      9  NE2       20.7390   -6.6990  -25.4340 N.am   30  GLN30      -0.0878
     10  N         17.4780   -9.6550  -27.3620 N.am   31  SER31      -0.1952
     11  CA        18.2340  -10.8330  -27.7720 C.3    31  SER31       0.1924
     12  C         17.6340  -11.5060  -29.0080 C.2    31  SER31       0.2314
     13  O         18.3650  -11.9870  -29.8670 O.2    31  SER31      -0.2863
     14  CB        18.3080  -11.8440  -26.6230 C.3    31  SER31       0.2116
     15  OG        19.1540  -11.3750  -25.5900 O.3    31  SER31      -0.2180
     16  N         18.5070   -9.5530  -31.9850 N.3    34  GLY34      -0.1225
     17  CA        19.9310   -9.7130  -32.2130 C.3    34  GLY34       0.1811
     18  C         20.2240  -11.0410  -32.8900 C.2    34  GLY34       0.2280
     19  O         21.0090  -11.1190  -33.8390 O.2    34  GLY34      -0.2866
     20  N         19.1390  -10.9990  -36.6390 N.3    37  LEU37      -0.1231
     21  CA        20.1020  -10.2730  -37.4600 C.3    37  LEU37       0.1693
     22  C         21.4130  -11.0250  -37.6340 C.2    37  LEU37       0.2592
     23  O         22.0150  -10.9970  -38.7100 O.2    37  LEU37      -0.2718
     24  CB        20.3760   -8.8920  -36.8570 C.3    37  LEU37       0.0284
     25  CG        19.2010   -7.9090  -36.9020 C.3    37  LEU37       0.0019
     26  CD1       19.5180   -6.6750  -36.0690 C.3    37  LEU37       0.0001
     27  CD2       18.9130   -7.5260  -38.3490 C.3    37  LEU37       0.0001
     28  N         21.8550  -11.6940  -36.5720 N.am   38  GLY38      -0.1957
     29  CA        23.0940  -12.4460  -36.6340 C.3    38  GLY38       0.1869
     30  C         23.0170  -13.6100  -37.6060 C.2    38  GLY38       0.2309
     31  O         23.9320  -13.8260  -38.4020 O.2    38  GLY38      -0.2863
     32  N         20.6650  -13.9830  -39.9920 N.3    40  PHE40      -0.1227
     33  CA        20.3930  -13.3920  -41.2950 C.3    40  PHE40       0.1736
     34  C         21.6910  -13.0230  -42.0050 C.2    40  PHE40       0.2595
     35  O         21.8650  -13.3140  -43.1880 O.2    40  PHE40      -0.2718
     36  CB        19.5450  -12.1280  -41.1570 C.3    40  PHE40       0.0547
     37  CG        19.3950  -11.3680  -42.4440 C.ar   40  PHE40      -0.0202
     38  CD1       18.4760  -11.7780  -43.4080 C.ar   40  PHE40      -0.0042
     39  CD2       20.2120  -10.2770  -42.7190 C.ar   40  PHE40      -0.0042
     40  CE1       18.3780  -11.1100  -44.6320 C.ar   40  PHE40      -0.0003
     41  CE2       20.1230   -9.6030  -43.9370 C.ar   40  PHE40      -0.0003
     42  CZ        19.2060  -10.0210  -44.8950 C.ar   40  PHE40      -0.0000
     43  N         22.6020  -12.3820  -41.2790 N.am   41  MET41      -0.1979
     44  CA        23.8690  -11.9630  -41.8620 C.3    41  MET41       0.1605
     45  C         24.7260  -13.1100  -42.3710 C.2    41  MET41       0.2287
     46  O         25.4380  -12.9600  -43.3630 O.2    41  MET41      -0.2864
     47  CB        24.6720  -11.1280  -40.8610 C.3    41  MET41       0.0413
     48  CG        24.1320   -9.7190  -40.6720 C.3    41  MET41       0.0598
     49  SD        23.8450   -8.8910  -42.2520 S.3    41  MET41      -0.1393
     50  CE        25.5070   -8.7740  -42.8900 C.3    41  MET41       0.0692
     51  N         13.7160   -6.5980  -42.6600 N.3    86  VAL86      -0.1245
     52  CA        15.0100   -6.5960  -41.9950 C.3    86  VAL86       0.1561
     53  C         15.3600   -5.2090  -41.4620 C.2    86  VAL86       0.2260
     54  O         16.0390   -5.0820  -40.4440 O.2    86  VAL86      -0.2867
     55  CB        16.1270   -7.0550  -42.9460 C.3    86  VAL86       0.0252
     56  CG1       17.4850   -6.8940  -42.2770 C.3    86  VAL86       0.0019
     57  CG2       15.9040   -8.5070  -43.3340 C.3    86  VAL86       0.0019
     58  N         16.1830   -4.2410  -37.7120 N.3    90  PHE90      -0.1241
     59  CA        17.4220   -3.4930  -37.5470 C.3    90  PHE90       0.1605
     60  C         17.1670   -2.3140  -36.6010 C.2    90  PHE90       0.2264
     61  O         17.9230   -2.0830  -35.6570 O.2    90  PHE90      -0.2867
     62  CB        17.8720   -2.9690  -38.9110 C.3    90  PHE90       0.0534
     63  CG        19.1810   -2.2290  -38.8910 C.ar   90  PHE90      -0.0203
     64  CD1       20.3860   -2.9220  -38.8430 C.ar   90  PHE90      -0.0042
     65  CD2       19.2080   -0.8420  -38.9640 C.ar   90  PHE90      -0.0042
     66  CE1       21.6010   -2.2480  -38.8760 C.ar   90  PHE90      -0.0003
     67  CE2       20.4190   -0.1530  -38.9970 C.ar   90  PHE90      -0.0003
     68  CZ        21.6190   -0.8580  -38.9540 C.ar   90  PHE90      -0.0000
     69  N         16.0910   -3.5010  -33.0010 N.3    93  HIS93      -0.1226
     70  CA        17.2660   -3.9720  -32.2780 C.3    93  HIS93       0.1752
     71  C         18.0980   -2.7930  -31.7600 C.2    93  HIS93       0.2595
     72  O         18.4650   -2.7570  -30.5840 O.2    93  HIS93      -0.2718
     73  CB        18.1300   -4.8460  -33.1910 C.3    93  HIS93       0.0759
     74  CG        19.4670   -5.2010  -32.6120 C.ar   93  HIS93       0.0818
     75  ND1       19.6250   -6.1210  -31.5970 N.ar   93  HIS93      -0.2268
     76  CD2       20.7120   -4.7600  -32.9120 C.ar   93  HIS93       0.1154
     77  CE1       20.9090   -6.2320  -31.3020 C.ar   93  HIS93       0.1986
     78  NE2       21.5920   -5.4180  -32.0860 N.ar   93  HIS93      -0.2212
     79  N         18.3940   -1.8390  -32.6440 N.am   94  ALA94      -0.1980
     80  CA        19.1820   -0.6610  -32.2840 C.3    94  ALA94       0.1597
     81  C         18.5100    0.1150  -31.1530 C.2    94  ALA94       0.2287
     82  O         19.1730    0.6170  -30.2520 O.2    94  ALA94      -0.2864
     83  CB        19.3630    0.2440  -33.5020 C.3    94  ALA94       0.0319
     84  N         18.9620   -2.2470  -27.9280 N.3    97  ALA97      -0.1231
     85  CA        20.3620   -2.4000  -27.5500 C.3    97  ALA97       0.1694
     86  C         21.0320   -1.0940  -27.1280 C.2    97  ALA97       0.2591
     87  O         21.9800   -1.0980  -26.3320 O.2    97  ALA97      -0.2718
     88  CB        21.1250   -3.0250  -28.6930 C.3    97  ALA97       0.0304
     89  N         20.5360    0.0110  -27.6760 N.am   98  MET98      -0.1979
     90  CA        21.0450    1.3450  -27.3910 C.3    98  MET98       0.1605
     91  C         20.9940    1.6510  -25.8840 C.2    98  MET98       0.2287
     92  O         21.7950    2.4320  -25.3680 O.2    98  MET98      -0.2864
     93  CB        20.2130    2.3610  -28.1810 C.3    98  MET98       0.0413
     94  CG        20.4810    3.8110  -27.8810 C.3    98  MET98       0.0598
     95  SD        19.5750    4.8610  -29.0470 S.3    98  MET98      -0.1393
     96  CE        17.8980    4.3680  -28.7300 C.3    98  MET98       0.0692
     97  N         21.9940    0.0310  -23.6280 N.3   100  LYS100     -0.1231
     98  CA        23.2130   -0.4550  -22.9970 C.3   100  LYS100      0.1693
     99  C         24.4970    0.3590  -23.1700 C.2   100  LYS100      0.2592
    100  O         25.5180    0.0330  -22.5620 O.2   100  LYS100     -0.2718
    101  CB        23.4350   -1.9090  -23.4400 C.3   100  LYS100      0.0285
    102  CG        23.3550   -2.9240  -22.3060 C.3   100  LYS100      0.0035
    103  CD        22.0460   -2.8800  -21.5040 C.3   100  LYS100      0.0206
    104  CE        20.8130   -3.1790  -22.3290 C.3   100  LYS100      0.1093
    105  NZ        20.3630   -4.6040  -22.1210 N.3   100  LYS100     -0.1314
    106  N         24.4520    1.4120  -23.9810 N.am  101  PHE101     -0.1976
    107  CA        25.6230    2.2670  -24.1990 C.3   101  PHE101      0.1639
    108  C         25.9880    3.0790  -22.9590 C.2   101  PHE101      0.2290
    109  O         25.1300    3.3820  -22.1280 O.2   101  PHE101     -0.2864
    110  CB        25.3670    3.3340  -25.2800 C.3   101  PHE101      0.0560
    111  CG        25.2520    2.8130  -26.6850 C.ar  101  PHE101     -0.0200
    112  CD1       26.0960    1.8180  -27.1570 C.ar  101  PHE101     -0.0042
    113  CD2       24.3380    3.3890  -27.5640 C.ar  101  PHE101     -0.0042
    114  CE1       26.0340    1.4040  -28.4850 C.ar  101  PHE101     -0.0003
    115  CE2       24.2670    2.9830  -28.8960 C.ar  101  PHE101     -0.0003
    116  CZ        25.1160    1.9890  -29.3570 C.ar  101  PHE101     -0.0000
    117  N         32.9930   -6.3550  -25.7280 N.3   126  TRP126     -0.1241
    118  CA        31.7070   -5.6840  -25.5830 C.3   126  TRP126      0.1605
    119  C         31.8520   -4.2510  -26.0870 C.2   126  TRP126      0.2264
    120  O         30.9450   -3.7030  -26.7110 O.2   126  TRP126     -0.2867
    121  CB        31.2460   -5.6550  -24.1260 C.3   126  TRP126      0.0550
    122  CG        29.9050   -4.9850  -23.9850 C.ar  126  TRP126      0.0003
    123  CD1       28.6800   -5.5550  -24.1880 C.ar  126  TRP126      0.0946
    124  CD2       29.6620   -3.5940  -23.7310 C.ar  126  TRP126      0.0152
    125  NE1       27.6890   -4.6050  -24.0840 N.ar  126  TRP126     -0.2442
    126  CE2       28.2630   -3.3920  -23.8050 C.ar  126  TRP126      0.0810
    127  CE3       30.4910   -2.4960  -23.4530 C.ar  126  TRP126      0.0012
    128  CZ2       27.6730   -2.1380  -23.6140 C.ar  126  TRP126      0.0191
    129  CZ3       29.9050   -1.2470  -23.2620 C.ar  126  TRP126      0.0001
    130  CH2       28.5070   -1.0800  -23.3450 C.ar  126  TRP126      0.0015
    131  N         31.5270   -4.2630  -29.5860 N.3   129  GLN129     -0.1231
    132  CA        30.1150   -4.4480  -29.9050 C.3   129  GLN129      0.1698
    133  C         29.4190   -3.0910  -29.9250 C.2   129  GLN129      0.2592
    134  O         28.6620   -2.7800  -30.8450 O.2   129  GLN129     -0.2718
    135  CB        29.4310   -5.3200  -28.8470 C.3   129  GLN129      0.0381
    136  CG        29.5470   -6.8190  -29.0470 C.3   129  GLN129      0.0905
    137  CD        28.8110   -7.5920  -27.9640 C.2   129  GLN129      0.2608
    138  OE1       29.3410   -7.8060  -26.8750 O.2   129  GLN129     -0.2717
    139  NE2       27.5760   -8.0000  -28.2540 N.am  129  GLN129     -0.0878
    140  N         29.6740   -2.2940  -28.8890 N.am  130  ALA130     -0.1980
    141  CA        29.0720   -0.9720  -28.7550 C.3   130  ALA130      0.1597
    142  C         29.5250   -0.0190  -29.8550 C.2   130  ALA130      0.2287
    143  O         28.7090    0.6900  -30.4390 O.2   130  ALA130     -0.2864
    144  CB        29.4070   -0.3840  -27.3810 C.3   130  ALA130      0.0319
    145  N         28.2040   -1.0730  -33.1770 N.3   133  GLY133     -0.1225
    146  CA        26.7680   -0.8570  -33.1750 C.3   133  GLY133      0.1811
    147  C         26.4680    0.5940  -33.5130 C.2   133  GLY133      0.2280
    148  O         25.6300    0.8900  -34.3710 O.2   133  GLY133     -0.2866
    149  N         27.0880    1.4210  -37.1890 N.3   136  MET136     -0.1230
    150  CA        26.1030    0.9000  -38.1270 C.3   136  MET136      0.1702
    151  C         24.8220    1.7070  -38.2420 C.2   136  MET136      0.2592
    152  O         24.0270    1.4860  -39.1590 O.2   136  MET136     -0.2718
    153  CB        25.7900   -0.5620  -37.8100 C.3   136  MET136      0.0401
    154  CG        26.9590   -1.4770  -38.1460 C.3   136  MET136      0.0596
    155  SD        26.5350   -3.2210  -38.1670 S.3   136  MET136     -0.1393
    156  CE        26.4890   -3.5800  -36.4070 C.3   136  MET136      0.0692
    157  N         24.6180    2.6390  -37.3160 N.am  137  PHE137     -0.1976
    158  CA        23.4480    3.5040  -37.3650 C.3   137  PHE137      0.1639
    159  C         23.5270    4.2150  -38.7130 C.2   137  PHE137      0.2290
    160  O         22.5350    4.3580  -39.4270 O.2   137  PHE137     -0.2864
    161  CB        23.5130    4.5770  -36.2690 C.3   137  PHE137      0.0560
    162  CG        22.7200    4.2560  -35.0320 C.ar  137  PHE137     -0.0200
    163  CD1       21.3660    3.9480  -35.1130 C.ar  137  PHE137     -0.0042
    164  CD2       23.3160    4.3320  -33.7750 C.ar  137  PHE137     -0.0042
    165  CE1       20.6150    3.7250  -33.9620 C.ar  137  PHE137     -0.0003
    166  CE2       22.5750    4.1110  -32.6160 C.ar  137  PHE137     -0.0003
    167  CZ        21.2200    3.8080  -32.7100 C.ar  137  PHE137     -0.0000
    168  N         29.9570   -5.1300  -39.1310 N.3   179  VAL179     -0.1245
    169  CA        28.8900   -6.0900  -38.8990 C.3   179  VAL179      0.1561
    170  C         29.3740   -7.5010  -38.5760 C.2   179  VAL179      0.2260
    171  O         28.6940   -8.2420  -37.8660 O.2   179  VAL179     -0.2867
    172  CB        27.9100   -6.1430  -40.1000 C.3   179  VAL179      0.0252
    173  CG1       28.5600   -6.8530  -41.2860 C.3   179  VAL179      0.0019
    174  CG2       26.6210   -6.8290  -39.6850 C.3   179  VAL179      0.0019
    175  N         30.6930   -7.2760  -34.9010 N.3   182  HIS182     -0.1226
    176  CA        29.4980   -7.1050  -34.0860 C.3   182  HIS182      0.1752
    177  C         28.6890   -8.3980  -34.0550 C.2   182  HIS182      0.2596
    178  O         28.3120   -8.8850  -32.9880 O.2   182  HIS182     -0.2718
    179  CB        28.6350   -5.9830  -34.6640 C.3   182  HIS182      0.0759
    180  CG        27.5060   -5.5600  -33.7740 C.ar  182  HIS182      0.0818
    181  ND1       27.6470   -4.6010  -32.7960 N.ar  182  HIS182     -0.2268
    182  CD2       26.2150   -5.9660  -33.7190 C.ar  182  HIS182      0.1154
    183  CE1       26.4910   -4.4320  -32.1790 C.ar  182  HIS182      0.1986
    184  NE2       25.6030   -5.2480  -32.7200 N.ar  182  HIS182     -0.2212
    185  N         28.4320   -8.9480  -35.2380 N.am  183  GLY183     -0.1957
    186  CA        27.6510  -10.1650  -35.3520 C.3   183  GLY183      0.1869
    187  C         28.2120  -11.3920  -34.6550 C.2   183  GLY183      0.2309
    188  O         27.5090  -12.0460  -33.8880 O.2   183  GLY183     -0.2863
    189  N         28.3910  -10.9010  -30.9020 N.3   186  GLY186     -0.1210
    190  CA        27.0290  -10.9320  -30.4010 C.3   186  GLY186      0.1956
    191  C         26.4350  -12.3240  -30.2820 C.2   186  GLY186      0.2611
    192  O         25.7490  -12.6270  -29.3020 O.2   186  GLY186     -0.2717
    193  N         26.6740  -13.1700  -31.2820 N.am  187  LEU187     -0.1979
    194  CA        26.1520  -14.5300  -31.2510 C.3   187  LEU187      0.1596
    195  C         26.8520  -15.2950  -30.1380 C.2   187  LEU187      0.2287
    196  O         26.2450  -16.1150  -29.4510 O.2   187  LEU187     -0.2864
    197  CB        26.3760  -15.2200  -32.6030 C.3   187  LEU187      0.0297
    198  CG        25.4840  -14.7130  -33.7440 C.3   187  LEU187      0.0022
    199  CD1       25.9500  -15.2930  -35.0770 C.3   187  LEU187      0.0001
    200  CD2       24.0350  -15.0930  -33.4580 C.3   187  LEU187      0.0001
    201  N         28.2310  -13.9730  -27.2840 N.3   189  ARG189     -0.1231
    202  CA        27.7450  -13.5240  -25.9810 C.3   189  ARG189      0.1694
    203  C         26.3330  -14.0190  -25.7200 C.2   189  ARG189      0.2591
    204  O         25.9600  -14.2920  -24.5830 O.2   189  ARG189     -0.2718
    205  CB        27.8000  -11.9960  -25.8600 C.3   189  ARG189      0.0321
    206  CG        27.9870  -11.5460  -24.4050 C.3   189  ARG189      0.0489
    207  CD        28.1690  -10.0550  -24.2690 C.3   189  ARG189      0.2205
    208  NE        29.3540   -9.5590  -24.9580 N.pl3 189  ARG189     -0.0865
    209  CZ        30.6040   -9.6830  -24.5210 C.cat 189  ARG189      0.5346
    210  NH1       30.8640  -10.2960  -23.3740 N.pl3 189  ARG189      0.1354
    211  NH2       31.5970   -9.1780  -25.2350 N.pl3 189  ARG189      0.1354
    212  N         25.5570  -14.1450  -26.7860 N.am  190  LEU190     -0.1980
    213  CA        24.1900  -14.6220  -26.6830 C.3   190  LEU190      0.1596
    214  C         24.2120  -16.0410  -26.0970 C.2   190  LEU190      0.2287
    215  O         23.4120  -16.3840  -25.2270 O.2   190  LEU190     -0.2864
    216  CB        23.5650  -14.6240  -28.0770 C.3   190  LEU190      0.0297
    217  CG        22.1340  -14.1340  -28.3030 C.3   190  LEU190      0.0022
    218  CD1       21.8130  -12.9390  -27.4360 C.3   190  LEU190      0.0001
    219  CD2       21.9850  -13.7850  -29.7830 C.3   190  LEU190      0.0001
    220  N         25.3130  -15.8270  -22.4660 N.3   193  LYS193     -0.1245
    221  CA        24.3610  -15.0410  -21.6900 C.3   193  LYS193      0.1561
    222  C         23.1600  -15.8920  -21.2910 C.2   193  LYS193      0.2260
    223  O         22.6990  -15.8390  -20.1470 O.2   193  LYS193     -0.2867
    224  CB        23.8850  -13.8150  -22.4870 C.3   193  LYS193      0.0271
    225  CG        22.5430  -13.2520  -22.0200 C.3   193  LYS193      0.0035
    226  CD        22.5020  -11.7250  -22.0370 C.3   193  LYS193      0.0206
    227  CE        22.7370  -11.1390  -23.4070 C.3   193  LYS193      0.1093
    228  NZ        22.7220   -9.6440  -23.4030 N.3   193  LYS193     -0.1314
@<TRIPOS>BOND
     1    42    40   ar
     2    42    41   ar
     3    40    38   ar
     4    41    39   ar
     5    38    37   ar
     6    46    45    2
     7    57    55    1
     8    35    34    2
     9    55    56    1
    10    55    52    1
    11    50    49    1
    12    39    37   ar
    13    51    52    1
    14    37    36    1
    15    45    44    1
    16    49    48    1
    17    34    33    1
    18    34    43   am
    19    52    53    1
    20    44    43    1
    21    44    47    1
    22    53    54    2
    23    33    36    1
    24    33    32    1
    25   173   172    1
    26    47    48    1
    27   172   174    1
    28   172   169    1
    29   160   159    2
    30   152   151    2
    31   168   169    1
    32    67    65   ar
    33    67    68   ar
    34    65    63   ar
    35    68    66   ar
    36    62    63    1
    37    62    59    1
    38   169   170    1
    39    63    64   ar
    40    66    64   ar
    41   159   158    1
    42    23    22    2
    43   170   171    2
    44    31    30    2
    45    27    25    1
    46   151   150    1
    47   151   157   am
    48   155   154    1
    49   155   156    1
    50   154   153    1
    51   150   153    1
    52   150   149    1
    53    58    59    1
    54    22    21    1
    55    22    28   am
    56    30    29    1
    57    59    60    1
    58    21    24    1
    59    21    20    1
    60   158   157    1
    61   158   161    1
    62    25    24    1
    63    25    26    1
    64    29    28    1
    65    60    61    2
    66   161   162    1
    67   186   185    1
    68   186   187    1
    69   185   177   am
    70   163   162   ar
    71   163   165   ar
    72   199   198    1
    73   162   164   ar
    74   175   176    1
    75   179   176    1
    76   179   180    1
    77   187   188    2
    78   148   147    2
    79   176   177    1
    80   177   178    2
    81   165   167   ar
    82    19    18    2
    83   164   166   ar
    84   180   182   ar
    85   180   181   ar
    86   198   200    1
    87   198   197    1
    88   182   184   ar
    89   147   146    1
    90    83    80    1
    91    73    74    1
    92    73    70    1
    93   145   146    1
    94    69    70    1
    95    76    74   ar
    96    76    78   ar
    97    18    17    1
    98   181   183   ar
    99   184   183   ar
   100   167   166   ar
   101    79    80    1
   102    79    71   am
   103    74    75   ar
   104   197   194    1
   105    80    81    1
   106    70    71    1
   107    17    16    1
   108    78    77   ar
   109    71    72    2
   110    75    77   ar
   111   193   194    1
   112   193   191   am
   113   194   195    1
   114    81    82    2
   115   189   190    1
   116   134   133    2
   117   143   142    2
   118   190   191    1
   119   191   192    2
   120   195   196    2
   121   133   132    1
   122   133   140   am
   123   132   131    1
   124   132   135    1
   125    13    12    2
   126   142   141    1
   127   219   217    1
   128   116   115   ar
   129   116   114   ar
   130     4     3    2
   131   136   135    1
   132   136   137    1
   133    95    96    1
   134    95    94    1
   135    12    11    1
   136   115   113   ar
   137   140   141    1
   138   141   144    1
   139    88    85    1
   140   114   112   ar
   141   217   216    1
   142   217   218    1
   143   139   137   am
   144    93    94    1
   145    93    90    1
   146     3     2    1
   147     3    10   am
   148   216   213    1
   149   137   138    2
   150    84    85    1
   151    11    10    1
   152    11    14    1
   153    89    90    1
   154    89    86   am
   155     2     1    1
   156     2     5    1
   157   113   111   ar
   158    85    86    1
   159    90    91    1
   160   201   202    1
   161   112   111   ar
   162    86    87    2
   163     6     5    1
   164     6     7    1
   165   212   213    1
   166   212   203   am
   167   120   119    2
   168   111   110    1
   169   213   214    1
   170    14    15    1
   171   214   215    2
   172   119   118    1
   173   202   205    1
   174   202   203    1
   175    91    92    2
   176   205   206    1
   177   117   118    1
   178   203   204    2
   179     7     9   am
   180     7     8    2
   181   118   121    1
   182   110   107    1
   183   211   209    1
   184   208   209    2
   185   208   207    1
   186   209   210    1
   187   206   207    1
   188   107   106    1
   189   107   108    1
   190   123   125   ar
   191   123   122   ar
   192   121   122    1
   193   125   126   ar
   194   122   124   ar
   195   106    99   am
   196   126   124   ar
   197   126   128   ar
   198   124   127   ar
   199    97    98    1
   200   128   130   ar
   201   127   129   ar
   202   101    98    1
   203   101   102    1
   204   227   228    1
   205   227   226    1
   206   130   129   ar
   207    99    98    1
   208    99   100    2
   209   108   109    2
   210   224   225    1
   211   224   221    1
   212   220   221    1
   213   104   105    1
   214   104   103    1
   215   102   103    1
   216   226   225    1
   217   221   222    1
   218   222   223    2
