@<TRIPOS>MOLECULE
tmp/2bs4C03.pdb
 115 109 0 0 0
SMALL
GASTEIGER

@<TRIPOS>ATOM
      1  N         20.6860  -13.9110  -39.9550 N.3    40  PHE40      -0.1241
      2  CA        20.4940  -13.2810  -41.2610 C.3    40  PHE40       0.1605
      3  C         21.8210  -12.9440  -41.9410 C.2    40  PHE40       0.2264
      4  O         21.9990  -13.2000  -43.1310 O.2    40  PHE40      -0.2867
      5  CB        19.6950  -11.9900  -41.1270 C.3    40  PHE40       0.0534
      6  CG        19.5430  -11.2450  -42.4190 C.ar   40  PHE40      -0.0203
      7  CD1       18.4400  -11.4660  -43.2410 C.ar   40  PHE40      -0.0042
      8  CD2       20.5170  -10.3390  -42.8310 C.ar   40  PHE40      -0.0042
      9  CE1       18.3050  -10.7930  -44.4570 C.ar   40  PHE40      -0.0003
     10  CE2       20.3940   -9.6620  -44.0430 C.ar   40  PHE40      -0.0003
     11  CZ        19.2830   -9.8890  -44.8590 C.ar   40  PHE40      -0.0000
     12  N         23.2570  -14.1210  -45.3600 N.3    44  HIS44      -0.1241
     13  CA        23.5110  -13.0140  -46.2750 C.3    44  HIS44       0.1621
     14  C         24.9380  -13.0760  -46.8310 C.2    44  HIS44       0.2264
     15  O         25.1540  -12.8860  -48.0250 O.2    44  HIS44      -0.2867
     16  CB        23.2510  -11.6760  -45.5560 C.3    44  HIS44       0.0745
     17  CG        23.6830  -10.4670  -46.3320 C.ar   44  HIS44       0.0817
     18  ND1       25.0080  -10.1810  -46.5790 N.ar   44  HIS44      -0.2268
     19  CD2       22.9720   -9.4530  -46.8850 C.ar   44  HIS44       0.1154
     20  CE1       25.0960   -9.0450  -47.2470 C.ar   44  HIS44       0.1986
     21  NE2       23.8760   -8.5800  -47.4450 N.ar   44  HIS44      -0.2212
     22  N         24.8940  -15.9710  -49.7350 N.3    47  PHE47      -0.1227
     23  CA        24.1050  -15.5890  -50.9070 C.3    47  PHE47       0.1736
     24  C         24.6260  -14.3610  -51.6650 C.2    47  PHE47       0.2595
     25  O         24.2990  -14.1580  -52.8350 O.2    47  PHE47      -0.2718
     26  CB        22.6390  -15.3750  -50.5020 C.3    47  PHE47       0.0547
     27  CG        21.9430  -16.6310  -50.0560 C.ar   47  PHE47      -0.0202
     28  CD1       22.3410  -17.2910  -48.8980 C.ar   47  PHE47      -0.0042
     29  CD2       20.8950  -17.1610  -50.8020 C.ar   47  PHE47      -0.0042
     30  CE1       21.7060  -18.4610  -48.4880 C.ar   47  PHE47      -0.0003
     31  CE2       20.2530  -18.3300  -50.4010 C.ar   47  PHE47      -0.0003
     32  CZ        20.6590  -18.9820  -49.2420 C.ar   47  PHE47      -0.0000
     33  N         25.4370  -13.5450  -51.0060 N.am   48  VAL48      -0.1980
     34  CA        25.9850  -12.3590  -51.6470 C.3    48  VAL48       0.1595
     35  C         27.3370  -12.7050  -52.2510 C.2    48  VAL48       0.2287
     36  O         27.7980  -12.0580  -53.1940 O.2    48  VAL48      -0.2864
     37  CB        26.1370  -11.1900  -50.6240 C.3    48  VAL48       0.0276
     38  CG1       27.2260  -10.2280  -51.0630 C.3    48  VAL48       0.0022
     39  CG2       24.8190  -10.4410  -50.5000 C.3    48  VAL48       0.0022
     40  N         25.0510  -16.1190  -59.2500 N.3    58  MET58      -0.1245
     41  CA        24.6400  -14.8690  -58.6260 C.3    58  MET58       0.1570
     42  C         23.2770  -14.4640  -59.1860 C.2    58  MET58       0.2261
     43  O         22.3130  -14.2640  -58.4430 O.2    58  MET58      -0.2867
     44  CB        25.6970  -13.7970  -58.9310 C.3    58  MET58       0.0387
     45  CG        25.2070  -12.3490  -58.9650 C.3    58  MET58       0.0595
     46  SD        25.1800  -11.5000  -57.3760 S.3    58  MET58      -0.1393
     47  CE        23.6460  -10.5520  -57.4960 C.3    58  MET58       0.0692
     48  N         20.5840  -16.7110  -58.0790 N.3    61  VAL61      -0.1231
     49  CA        20.2030  -16.4420  -56.6990 C.3    61  VAL61       0.1692
     50  C         19.2860  -15.2180  -56.6840 C.2    61  VAL61       0.2592
     51  O         18.1690  -15.2590  -56.1580 O.2    61  VAL61      -0.2718
     52  CB        21.4460  -16.1320  -55.8390 C.3    61  VAL61       0.0266
     53  CG1       21.0420  -15.9540  -54.3860 C.3    61  VAL61       0.0020
     54  CG2       22.4800  -17.2400  -55.9900 C.3    61  VAL61       0.0020
     55  N         19.7740  -14.1350  -57.2800 N.am   62  THR62      -0.1953
     56  CA        19.0350  -12.8840  -57.3540 C.3    62  THR62       0.1897
     57  C         17.6000  -13.0980  -57.8030 C.2    62  THR62       0.2313
     58  O         16.6660  -12.5600  -57.2060 O.2    62  THR62      -0.2863
     59  CB        19.6900  -11.9170  -58.3480 C.3    62  THR62       0.1794
     60  OG1       21.0860  -11.8030  -58.0580 O.3    62  THR62      -0.2208
     61  CG2       19.0490  -10.5460  -58.2490 C.3    62  THR62       0.0378
     62  N         15.0480  -14.9530  -55.2090 N.3    65  PHE65      -0.1241
     63  CA        14.5060  -14.1260  -54.1340 C.3    65  PHE65       0.1605
     64  C         13.3030  -13.3340  -54.6290 C.2    65  PHE65       0.2264
     65  O         12.3630  -13.0800  -53.8750 O.2    65  PHE65      -0.2867
     66  CB        15.5600  -13.1610  -53.5980 C.3    65  PHE65       0.0534
     67  CG        16.5200  -13.7950  -52.6460 C.ar   65  PHE65      -0.0203
     68  CD1       17.8010  -14.1460  -53.0540 C.ar   65  PHE65      -0.0042
     69  CD2       16.1400  -14.0570  -51.3360 C.ar   65  PHE65      -0.0042
     70  CE1       18.6910  -14.7480  -52.1690 C.ar   65  PHE65      -0.0003
     71  CE2       17.0200  -14.6590  -50.4460 C.ar   65  PHE65      -0.0003
     72  CZ        18.2980  -15.0050  -50.8620 C.ar   65  PHE65      -0.0000
     73  N         11.8430   -8.3640  -52.9430 N.3    79  VAL79      -0.1245
     74  CA        13.0380   -7.9390  -52.2240 C.3    79  VAL79       0.1561
     75  C         12.7670   -6.6640  -51.4220 C.2    79  VAL79       0.2260
     76  O         13.3420   -6.4710  -50.3550 O.2    79  VAL79      -0.2867
     77  CB        14.2290   -7.6950  -53.2020 C.3    79  VAL79       0.0252
     78  CG1       15.4340   -7.1440  -52.4500 C.3    79  VAL79       0.0019
     79  CG2       14.6020   -9.0000  -53.8990 C.3    79  VAL79       0.0019
     80  N         11.2500   -7.8780  -48.2640 N.3    82  LEU82      -0.1245
     81  CA        12.2750   -8.6240  -47.5560 C.3    82  LEU82       0.1561
     82  C         13.2000   -7.6290  -46.8350 C.2    82  LEU82       0.2260
     83  O         13.5870   -7.8350  -45.6820 O.2    82  LEU82      -0.2867
     84  CB        13.0720   -9.4510  -48.5650 C.3    82  LEU82       0.0270
     85  CG        13.6120  -10.8050  -48.1090 C.3    82  LEU82       0.0019
     86  CD1       14.6250  -10.6180  -46.9770 C.3    82  LEU82       0.0001
     87  CD2       12.4370  -11.6820  -47.6740 C.3    82  LEU82       0.0001
     88  N         18.6800   -1.3300  -51.1280 N.3   147  MET147     -0.1245
     89  CA        18.1470   -2.6480  -51.4290 C.3   147  MET147      0.1570
     90  C         16.6330   -2.5790  -51.4000 C.2   147  MET147      0.2261
     91  O         15.9620   -3.1780  -52.2290 O.2   147  MET147     -0.2867
     92  CB        18.6180   -3.6970  -50.4130 C.3   147  MET147      0.0387
     93  CG        20.1230   -3.8090  -50.2500 C.3   147  MET147      0.0595
     94  SD        21.0240   -3.7460  -51.8110 S.3   147  MET147     -0.1393
     95  CE        20.3980   -5.1980  -52.5890 C.3   147  MET147      0.0692
     96  N         19.8940   -5.4530  -58.5670 N.3   154  ILE154     -0.1245
     97  CA        20.7800   -6.4500  -57.9650 C.3   154  ILE154      0.1561
     98  C         21.2060   -7.4080  -59.0740 C.2   154  ILE154      0.2260
     99  O         20.3750   -7.8610  -59.8610 O.2   154  ILE154     -0.2867
    100  CB        20.0760   -7.3080  -56.8800 C.3   154  ILE154      0.0252
    101  CG1       19.0110   -6.4950  -56.1420 C.3   154  ILE154      0.0019
    102  CG2       21.1090   -7.8420  -55.9130 C.3   154  ILE154      0.0019
    103  CD1       19.4860   -5.1660  -55.6240 C.3   154  ILE154      0.0001
    104  N         33.2530   -8.0690  -56.8800 N.3   231  TYR231     -0.1241
    105  CA        32.3870   -6.9640  -57.2850 C.3   231  TYR231      0.1605
    106  C         33.1890   -5.7650  -57.7570 C.2   231  TYR231      0.2264
    107  O         32.8130   -5.0940  -58.7180 O.2   231  TYR231     -0.2867
    108  CB        31.4990   -6.5360  -56.1190 C.3   231  TYR231      0.0534
    109  CG        30.3560   -7.4770  -55.8410 C.ar  231  TYR231     -0.0201
    110  CD1       29.2570   -7.5450  -56.7010 C.ar  231  TYR231     -0.0009
    111  CD2       30.3750   -8.3150  -54.7260 C.ar  231  TYR231     -0.0009
    112  CE1       28.2010   -8.4300  -56.4540 C.ar  231  TYR231      0.0417
    113  CE2       29.3270   -9.2020  -54.4720 C.ar  231  TYR231      0.0417
    114  CZ        28.2460   -9.2570  -55.3370 C.ar  231  TYR231      0.1957
    115  OH        27.2270  -10.1490  -55.0920 O.3   231  TYR231     -0.2866
@<TRIPOS>BOND
     1    99    98    2
     2    40    41    1
     3    42    41    1
     4    42    43    2
     5    98    97    1
     6    45    44    1
     7    45    46    1
     8    44    41    1
     9   107   106    2
    10    96    97    1
    11    59    61    1
    12    59    60    1
    13    59    56    1
    14    48    49    1
    15    97   100    1
    16    57    56    1
    17    57    58    2
    18   106   105    1
    19    47    46    1
    20    56    55    1
    21   105   104    1
    22   105   108    1
    23    55    50   am
    24   100   101    1
    25   100   102    1
    26   110   112   ar
    27   110   109   ar
    28    49    50    1
    29    49    52    1
    30    50    51    2
    31   112   114   ar
    32   101   103    1
    33   108   109    1
    34    54    52    1
    35   109   111   ar
    36    52    53    1
    37   114   115    1
    38   114   113   ar
    39    62    63    1
    40   111   113   ar
    41    64    63    1
    42    64    65    2
    43    63    66    1
    44    79    77    1
    45    66    67    1
    46    77    78    1
    47    77    74    1
    48    36    35    2
    49    68    67   ar
    50    68    70   ar
    51    73    74    1
    52    25    24    2
    53    67    69   ar
    54    95    94    1
    55    35    34    1
    56    91    90    2
    57    74    75    1
    58    70    72   ar
    59    94    93    1
    60    24    33   am
    61    24    23    1
    62    34    33    1
    63    34    37    1
    64    89    90    1
    65    89    88    1
    66    89    92    1
    67    75    76    2
    68    69    71   ar
    69    38    37    1
    70    23    26    1
    71    23    22    1
    72    72    71   ar
    73    29    31   ar
    74    29    27   ar
    75    37    39    1
    76    26    27    1
    77    92    93    1
    78    31    32   ar
    79    27    28   ar
    80    32    30   ar
    81    28    30   ar
    82    84    85    1
    83    84    81    1
    84    80    81    1
    85    85    87    1
    86    85    86    1
    87    15    14    2
    88    81    82    1
    89    21    20   ar
    90    21    19   ar
    91    20    18   ar
    92    19    17   ar
    93    82    83    2
    94    14    13    1
    95    18    17   ar
    96    17    16    1
    97    13    16    1
    98    13    12    1
    99    11     9   ar
   100    11    10   ar
   101     9     7   ar
   102    10     8   ar
   103     7     6   ar
   104     4     3    2
   105     8     6   ar
   106     6     5    1
   107     3     2    1
   108     2     5    1
   109     2     1    1
