@<TRIPOS>MOLECULE
tmp/2bs4A01.pdb
 104 98 0 0 0
SMALL
GASTEIGER

@<TRIPOS>ATOM
      1  N         37.7460  -18.8400    9.2070 N.3    46  ALA46      -0.1231
      2  CA        38.8940  -19.6610    8.8470 C.3    46  ALA46       0.1694
      3  C         38.7960  -21.1520    9.1990 C.2    46  ALA46       0.2592
      4  O         39.5230  -21.9680    8.6230 O.2    46  ALA46      -0.2718
      5  CB        40.1460  -19.0750    9.4640 C.3    46  ALA46       0.0304
      6  N         37.9200  -21.5080   10.1380 N.am   47  ALA47      -0.1966
      7  CA        37.7580  -22.9030   10.5580 C.3    47  ALA47       0.1728
      8  C         37.5060  -23.8840    9.4080 C.2    47  ALA47       0.2616
      9  O         36.5860  -23.6920    8.6100 O.2    47  ALA47      -0.2715
     10  CB        36.6270  -23.0090   11.5740 C.3    47  ALA47       0.0334
     11  N         38.3160  -24.9400    9.3250 N.am   48  GLN48      -0.1963
     12  CA        38.1340  -25.9430    8.2760 C.3    48  GLN48       0.1733
     13  C         38.1170  -27.3790    8.8020 C.2    48  GLN48       0.2616
     14  O         37.8770  -28.3190    8.0470 O.2    48  GLN48      -0.2715
     15  CB        39.2110  -25.8060    7.2040 C.3    48  GLN48       0.0408
     16  CG        39.3020  -24.4180    6.6300 C.3    48  GLN48       0.0908
     17  CD        40.3730  -24.2960    5.5700 C.2    48  GLN48       0.2608
     18  OE1       40.3040  -24.9490    4.5320 O.2    48  GLN48      -0.2717
     19  NE2       41.3730  -23.4520    5.8230 N.am   48  GLN48      -0.0878
     20  N         38.3730  -27.5490   10.0950 N.am   49  GLY49      -0.1955
     21  CA        38.3490  -28.8800   10.6750 C.3    49  GLY49       0.1869
     22  C         36.9150  -29.3460   10.8510 C.2    49  GLY49       0.2309
     23  O         36.5370  -30.4050   10.3510 O.2    49  GLY49      -0.2863
     24  N         38.1800  -36.2530   13.7940 N.3   141  PHE141     -0.1241
     25  CA        38.8850  -35.0150   14.0440 C.3   141  PHE141      0.1605
     26  C         38.8700  -34.7020   15.5420 C.2   141  PHE141      0.2264
     27  O         37.8140  -34.7640   16.1860 O.2   141  PHE141     -0.2867
     28  CB        38.1890  -33.9060   13.2540 C.3   141  PHE141      0.0534
     29  CG        38.8300  -32.5580   13.3950 C.ar  141  PHE141     -0.0203
     30  CD1       39.9810  -32.2380   12.6780 C.ar  141  PHE141     -0.0042
     31  CD2       38.2750  -31.5980   14.2470 C.ar  141  PHE141     -0.0042
     32  CE1       40.5630  -30.9850   12.8100 C.ar  141  PHE141     -0.0003
     33  CE2       38.8600  -30.3450   14.3770 C.ar  141  PHE141     -0.0003
     34  CZ        39.9970  -30.0470   13.6590 C.ar  141  PHE141     -0.0000
     35  N         49.2150  -25.4020   17.4650 N.3   257  HIS257     -0.1241
     36  CA        48.8710  -26.3570   16.4200 C.3   257  HIS257      0.1621
     37  C         50.2380  -26.8120   15.9150 C.2   257  HIS257      0.2264
     38  O         51.1430  -25.9930   15.7630 O.2   257  HIS257     -0.2867
     39  CB        48.0970  -25.6730   15.2920 C.3   257  HIS257      0.0745
     40  CG        47.7180  -26.5970   14.1760 C.ar  257  HIS257      0.0817
     41  ND1       46.4740  -27.1810   14.0790 N.ar  257  HIS257     -0.2268
     42  CD2       48.4410  -27.0800   13.1370 C.ar  257  HIS257      0.1154
     43  CE1       46.4490  -27.9860   13.0330 C.ar  257  HIS257      0.1986
     44  NE2       47.6290  -27.9430   12.4430 N.ar  257  HIS257     -0.2212
     45  N         47.3050  -22.1820    8.1590 N.3   267  LEU267     -0.1245
     46  CA        46.9900  -23.5240    8.5950 C.3   267  LEU267      0.1561
     47  C         46.8680  -24.5980    7.5410 C.2   267  LEU267      0.2260
     48  O         46.3370  -24.3830    6.4570 O.2   267  LEU267     -0.2867
     49  CB        45.7260  -23.4980    9.4470 C.3   267  LEU267      0.0270
     50  CG        45.6160  -24.6160   10.4760 C.3   267  LEU267      0.0019
     51  CD1       46.9640  -24.8470   11.1270 C.3   267  LEU267      0.0001
     52  CD2       44.6020  -24.2320   11.5200 C.3   267  LEU267      0.0001
     53  N         45.3020  -28.0510    7.6930 N.3   269  THR269     -0.1203
     54  CA        44.3820  -28.9180    8.4290 C.3   269  THR269      0.1994
     55  C         44.9870  -30.2290    8.9620 C.2   269  THR269      0.2617
     56  O         45.8740  -30.8260    8.3400 O.2   269  THR269     -0.2717
     57  CB        43.1330  -29.2230    7.5500 C.3   269  THR269      0.1784
     58  OG1       42.1250  -29.8760    8.3320 O.3   269  THR269     -0.2211
     59  CG2       43.5180  -30.0960    6.3680 C.3   269  THR269      0.0376
     60  N         44.4950  -30.6540   10.1300 N.am  270  GLU270     -0.1979
     61  CA        44.9410  -31.8800   10.8020 C.3   270  GLU270      0.1602
     62  C         44.7220  -33.1410    9.9600 C.2   270  GLU270      0.2287
     63  O         45.2800  -34.2020   10.2690 O.2   270  GLU270     -0.2864
     64  CB        44.2120  -32.0390   12.1440 C.3   270  GLU270      0.0415
     65  CG        44.4880  -33.3490   12.8670 C.3   270  GLU270      0.1163
     66  CD        43.5990  -33.5450   14.0790 C.2   270  GLU270      0.3649
     67  OE1       43.6480  -32.7030   14.9990 O.co2 270  GLU270     -0.2457
     68  OE2       42.8490  -34.5430   14.1100 O.co2 270  GLU270     -0.2457
     69  N         47.7780  -34.2500   19.2670 N.3   301  ARG301     -0.1245
     70  CA        48.4500  -33.0370   18.8040 C.3   301  ARG301      0.1563
     71  C         49.4730  -32.5790   19.8240 C.2   301  ARG301      0.2260
     72  O         50.6460  -32.3730   19.5010 O.2   301  ARG301     -0.2867
     73  CB        47.4410  -31.9090   18.5680 C.3   301  ARG301      0.0307
     74  CG        46.7010  -31.9960   17.2470 C.3   301  ARG301      0.0489
     75  CD        45.9320  -30.7210   16.9980 C.3   301  ARG301      0.2205
     76  NE        45.2730  -30.7330   15.7000 N.pl3 301  ARG301     -0.0865
     77  CZ        44.6460  -29.6880   15.1770 C.cat 301  ARG301      0.5346
     78  NH1       44.5940  -28.5420   15.8430 N.pl3 301  ARG301      0.1354
     79  NH2       44.0740  -29.7880   13.9890 N.pl3 301  ARG301      0.1354
     80  N         47.7470  -21.1330   18.3570 N.3   369  HIS369     -0.1241
     81  CA        46.5090  -21.3750   17.6260 C.3   369  HIS369      0.1621
     82  C         45.2190  -20.9620   18.3290 C.2   369  HIS369      0.2264
     83  O         44.4130  -20.2210   17.7750 O.2   369  HIS369     -0.2867
     84  CB        46.4390  -22.8630   17.2960 C.3   369  HIS369      0.0745
     85  CG        45.2470  -23.2520   16.4870 C.ar  369  HIS369      0.0817
     86  ND1       45.1010  -22.9010   15.1620 N.ar  369  HIS369     -0.2268
     87  CD2       44.1620  -23.9960   16.8030 C.ar  369  HIS369      0.1154
     88  CE1       43.9800  -23.4180   14.6940 C.ar  369  HIS369      0.1986
     89  NE2       43.3920  -24.0870   15.6700 N.ar  369  HIS369     -0.2212
     90  N         41.7900  -27.2390   25.0040 N.3   404  ARG404     -0.1245
     91  CA        40.5150  -27.2530   24.3220 C.3   404  ARG404      0.1563
     92  C         40.5380  -28.4060   23.3260 C.2   404  ARG404      0.2260
     93  O         41.5950  -28.7380   22.7770 O.2   404  ARG404     -0.2867
     94  CB        40.3050  -25.8840   23.6520 C.3   404  ARG404      0.0307
     95  CG        39.6810  -25.8770   22.2730 C.3   404  ARG404      0.0489
     96  CD        40.7440  -26.1000   21.2180 C.3   404  ARG404      0.2205
     97  NE        40.1990  -25.9610   19.8760 N.pl3 404  ARG404     -0.0865
     98  CZ        40.8420  -26.3190   18.7740 C.cat 404  ARG404      0.5346
     99  NH1       42.0580  -26.8360   18.8650 N.pl3 404  ARG404      0.1354
    100  NH2       40.2610  -26.1740   17.5860 N.pl3 404  ARG404      0.1354
    101  N         39.8700  -30.3050   19.8320 N.3   406  GLY406     -0.1225
    102  CA        39.7640  -29.9180   18.4380 C.3   406  GLY406      0.1811
    103  C         38.3290  -30.1070   17.9950 C.2   406  GLY406      0.2280
    104  O         37.7730  -31.2000   18.0930 O.2   406  GLY406     -0.2866
@<TRIPOS>BOND
     1    18    17    2
     2    17    19   am
     3    17    16    1
     4    59    57    1
     5    48    47    2
     6    16    15    1
     7    15    12    1
     8    47    46    1
     9    57    58    1
    10    57    54    1
    11    53    54    1
    12    14    13    2
    13    45    46    1
    14    12    13    1
    15    12    11    1
    16    56    55    2
    17    54    55    1
    18    46    49    1
    19     9     8    2
    20     4     3    2
    21    13    20   am
    22     2     3    1
    23     2     1    1
    24     2     5    1
    25    55    60   am
    26     3     6   am
    27    11     8   am
    28     8     7    1
    29    49    50    1
    30    62    63    2
    31    62    61    1
    32    20    21    1
    33    60    61    1
    34     6     7    1
    35    23    22    2
    36    50    51    1
    37    50    52    1
    38     7    10    1
    39    21    22    1
    40    61    64    1
    41    64    65    1
    42    44    43   ar
    43    44    42   ar
    44    30    32   ar
    45    30    29   ar
    46    32    34   ar
    47    65    66    1
    48    43    41   ar
    49    42    40   ar
    50    28    29    1
    51    28    25    1
    52    29    31   ar
    53    34    33   ar
    54    24    25    1
    55    79    77    1
    56    25    26    1
    57    66    68   ar
    58    66    67   ar
    59    41    40   ar
    60    40    39    1
    61    31    33   ar
    62    88    86   ar
    63    88    89   ar
    64    86    85   ar
    65    77    76    2
    66    77    78    1
    67    39    36    1
    68    26    27    2
    69    89    87   ar
    70    76    75    1
    71    38    37    2
    72    37    36    1
    73    36    35    1
    74    85    87   ar
    75    85    84    1
    76    75    74    1
    77    74    73    1
    78    84    81    1
    79   100    98    1
    80    81    82    1
    81    81    80    1
    82    83    82    2
    83   103   104    2
    84   103   102    1
    85   102   101    1
    86    73    70    1
    87    98    99    1
    88    98    97    2
    89    70    69    1
    90    70    71    1
    91    72    71    2
    92    97    96    1
    93    96    95    1
    94    95    94    1
    95    93    92    2
    96    92    91    1
    97    94    91    1
    98    91    90    1
