@<TRIPOS>MOLECULE
tmp/2bs5A00.pdb
 123 117 0 0 0
SMALL
GASTEIGER

@<TRIPOS>ATOM
      1  N          3.6140    7.0580   41.1060 N.3    10  TRP10      -0.1241
      2  CA         3.8790    6.5740   42.4460 C.3    10  TRP10       0.1605
      3  C          3.7040    7.6410   43.4650 C.2    10  TRP10       0.2264
      4  O          3.8020    8.8470   43.1470 O.2    10  TRP10      -0.2867
      5  CB         5.2950    5.9970   42.4960 C.3    10  TRP10       0.0550
      6  CG         6.4110    6.9470   42.1910 C.ar   10  TRP10       0.0003
      7  CD1        7.1190    7.6950   43.1080 C.ar   10  TRP10       0.0946
      8  CD2        7.0220    7.2000   40.9150 C.ar   10  TRP10       0.0152
      9  NE1        8.1090    8.4030   42.4820 N.ar   10  TRP10      -0.2442
     10  CE2        8.0770    8.1210   41.1330 C.ar   10  TRP10       0.0810
     11  CE3        6.7790    6.7500   39.6040 C.ar   10  TRP10       0.0012
     12  CZ2        8.8480    8.6240   40.0970 C.ar   10  TRP10       0.0191
     13  CZ3        7.5740    7.2290   38.5850 C.ar   10  TRP10       0.0001
     14  CH2        8.5810    8.1660   38.8330 C.ar   10  TRP10       0.0015
     15  N          4.1490   11.3900   41.6710 N.3    15  SER15      -0.1217
     16  CA         5.0430   11.5030   40.5270 C.3    15  SER15       0.1889
     17  C          4.4660   10.6650   39.4050 C.2    15  SER15       0.2288
     18  O          3.9090    9.5940   39.6600 O.2    15  SER15      -0.2866
     19  CB         6.4530   11.0410   40.8840 C.3    15  SER15       0.2089
     20  OG         7.0380   11.9080   41.8460 O.3    15  SER15      -0.2183
     21  N          5.3320    9.3550   35.2060 N.3    17  ARG17      -0.1245
     22  CA         6.1640    9.3020   33.9850 C.3    17  ARG17       0.1563
     23  C          5.3900    8.8510   32.7720 C.2    17  ARG17       0.2260
     24  O          4.5940    7.8850   32.8370 O.2    17  ARG17      -0.2867
     25  CB         7.4100    8.4130   34.1600 C.3    17  ARG17       0.0307
     26  CG         8.3350    8.7720   35.3130 C.3    17  ARG17       0.0489
     27  CD         8.9790   10.1350   35.1250 C.3    17  ARG17       0.2205
     28  NE         9.9400   10.5020   36.1610 N.pl3  17  ARG17      -0.0865
     29  CZ         9.6560   11.1890   37.2790 C.cat  17  ARG17       0.5346
     30  NH1        8.4340   11.6510   37.5090 N.pl3  17  ARG17       0.1354
     31  NH2       10.6250   11.4740   38.1330 N.pl3  17  ARG17       0.1354
     32  N         10.8330   10.7070   27.3080 N.3    28  GLU28      -0.1245
     33  CA        10.1940   10.7140   28.5970 C.3    28  GLU28       0.1567
     34  C          9.8490   12.1380   29.0680 C.2    28  GLU28       0.2260
     35  O         10.6690   13.0620   28.9270 O.2    28  GLU28      -0.2867
     36  CB        11.1020    9.9950   29.5500 C.3    28  GLU28       0.0388
     37  CG        10.5650    9.7940   30.9710 C.3    28  GLU28       0.1160
     38  CD        11.6700    9.4690   31.9140 C.2    28  GLU28       0.3649
     39  OE1       12.7810    9.9970   31.6630 O.co2  28  GLU28      -0.2457
     40  OE2       11.4380    8.7270   32.9230 O.co2  28  GLU28      -0.2457
     41  N          8.1100   13.9780   32.5970 N.3    30  CYS30      -0.1235
     42  CA         8.0170   13.7180   34.0380 C.3    30  CYS30       0.1677
     43  C          7.2520   14.7710   34.7760 C.2    30  CYS30       0.2270
     44  O          7.3830   15.9620   34.4880 O.2    30  CYS30      -0.2867
     45  CB         9.4320   13.7200   34.6170 C.3    30  CYS30       0.0956
     46  SG        10.6860   12.7570   33.6850 S.3    30  CYS30      -0.0801
     47  N          6.7670   15.8260   38.9370 N.3    32  ASP32      -0.1239
     48  CA         6.9920   15.5400   40.3650 C.3    32  ASP32       0.1674
     49  C          6.2360   16.5280   41.2380 C.2    32  ASP32       0.2266
     50  O          6.6560   16.8220   42.3500 O.2    32  ASP32      -0.2867
     51  CB         8.4720   15.5360   40.6920 C.3    32  ASP32       0.1410
     52  CG         9.2470   14.4900   39.9040 C.2    32  ASP32       0.3668
     53  OD1        8.8000   13.3180   39.8460 O.co2  32  ASP32      -0.2456
     54  OD2       10.3270   14.8430   39.3650 O.co2  32  ASP32      -0.2456
     55  N          8.4410   18.1590   32.9350 N.3    37  TYR37      -0.1241
     56  CA         9.8240   18.3200   32.4300 C.3    37  TYR37       0.1605
     57  C         10.2800   17.0750   31.7160 C.2    37  TYR37       0.2264
     58  O          9.7330   15.9720   31.8910 O.2    37  TYR37      -0.2867
     59  CB        10.8350   18.6340   33.5520 C.3    37  TYR37       0.0534
     60  CG        11.1090   17.5560   34.5270 C.ar   37  TYR37      -0.0201
     61  CD1       12.1780   16.6800   34.3550 C.ar   37  TYR37      -0.0009
     62  CD2       10.3390   17.4210   35.6580 C.ar   37  TYR37      -0.0009
     63  CE1       12.4380   15.6760   35.2720 C.ar   37  TYR37       0.0417
     64  CE2       10.6030   16.4350   36.5740 C.ar   37  TYR37       0.0417
     65  CZ        11.6430   15.5590   36.3730 C.ar   37  TYR37       0.1957
     66  OH        11.9160   14.5870   37.3180 O.3    37  TYR37      -0.2866
     67  N         12.6380   14.1020   30.8470 N.3    39  GLY39      -0.1210
     68  CA        13.4660   13.2810   31.6950 C.3    39  GLY39       0.1956
     69  C         14.6670   12.6980   30.9960 C.2    39  GLY39       0.2611
     70  O         14.8840   12.8590   29.7750 O.2    39  GLY39      -0.2717
     71  N         15.4690   12.0080   31.7880 N.am   40  ALA40      -0.1979
     72  CA        16.7170   11.4750   31.2740 C.3    40  ALA40       0.1597
     73  C         16.5670   10.3260   30.2980 C.2    40  ALA40       0.2287
     74  O         17.5300   10.0760   29.5880 O.2    40  ALA40      -0.2864
     75  CB        17.6210   11.0600   32.4260 C.3    40  ALA40       0.0319
     76  N         12.1100    4.8620   44.0130 N.3    59  ILE59      -0.1245
     77  CA        11.3750    4.3440   42.8410 C.3    59  ILE59       0.1561
     78  C         12.2370    3.4430   41.9450 C.2    59  ILE59       0.2260
     79  O         13.3990    3.7370   41.6550 O.2    59  ILE59      -0.2867
     80  CB        10.7190    5.4890   42.0130 C.3    59  ILE59       0.0252
     81  CG1        9.7600    4.9420   40.9560 C.3    59  ILE59       0.0019
     82  CG2       11.7530    6.3960   41.3550 C.3    59  ILE59       0.0019
     83  CD1        8.5850    4.2170   41.5220 C.3    59  ILE59       0.0001
     84  N         11.7630    1.7750   38.2900 N.3    61  ILE61      -0.1245
     85  CA        10.9830    1.7550   37.0600 C.3    61  ILE61       0.1561
     86  C         11.6070    0.7430   36.1320 C.2    61  ILE61       0.2260
     87  O         12.8340    0.6170   36.0930 O.2    61  ILE61      -0.2867
     88  CB        11.0230    3.1000   36.3620 C.3    61  ILE61       0.0252
     89  CG1       10.6290    4.1910   37.3370 C.3    61  ILE61       0.0019
     90  CG2       10.0940    3.0960   35.1240 C.3    61  ILE61       0.0019
     91  CD1       10.9270    5.6070   36.8310 C.3    61  ILE61       0.0001
     92  N         15.4660    1.8680   35.8170 N.3    76  TRP76      -0.1241
     93  CA        15.8380    2.9530   36.6810 C.3    76  TRP76       0.1605
     94  C         15.8230    2.4280   38.1020 C.2    76  TRP76       0.2264
     95  O         14.8170    1.8940   38.5380 O.2    76  TRP76      -0.2867
     96  CB        14.8980    4.1480   36.5600 C.3    76  TRP76       0.0550
     97  CG        15.2640    5.2000   37.5530 C.ar   76  TRP76       0.0003
     98  CD1       14.8500    5.2710   38.8300 C.ar   76  TRP76       0.0946
     99  CD2       16.1430    6.3200   37.3480 C.ar   76  TRP76       0.0152
    100  NE1       15.3880    6.3700   39.4430 N.ar   76  TRP76      -0.2442
    101  CE2       16.1920    7.0350   38.5640 C.ar   76  TRP76       0.0810
    102  CE3       16.8760    6.7810   36.2750 C.ar   76  TRP76       0.0012
    103  CZ2       16.9500    8.2090   38.7330 C.ar   76  TRP76       0.0191
    104  CZ3       17.6410    7.9810   36.4340 C.ar   76  TRP76       0.0001
    105  CH2       17.6600    8.6660   37.6670 C.ar   76  TRP76       0.0015
    106  N         17.5290    4.4470   40.7120 N.3    78  GLY78      -0.1225
    107  CA        17.8720    5.5680   41.5760 C.3    78  GLY78       0.1811
    108  C         19.0760    6.3890   41.1370 C.2    78  GLY78       0.2280
    109  O         19.3370    7.4650   41.7070 O.2    78  GLY78      -0.2866
    110  N         19.7800    4.8820   33.9880 N.3    81  TRP81      -0.1241
    111  CA        19.1290    3.8200   33.2290 C.3    81  TRP81       0.1605
    112  C         20.1610    2.7900   32.8110 C.2    81  TRP81       0.2264
    113  O         21.1660    3.1240   32.1900 O.2    81  TRP81      -0.2867
    114  CB        18.4200    4.3890   31.9990 C.3    81  TRP81       0.0550
    115  CG        17.2470    5.2420   32.3430 C.ar   81  TRP81       0.0003
    116  CD1       17.2060    6.6120   32.3940 C.ar   81  TRP81       0.0946
    117  CD2       15.9470    4.7910   32.7080 C.ar   81  TRP81       0.0152
    118  NE1       15.9500    7.0380   32.7870 N.ar   81  TRP81      -0.2442
    119  CE2       15.1530    5.9340   32.9510 C.ar   81  TRP81       0.0810
    120  CE3       15.3580    3.5260   32.8300 C.ar   81  TRP81       0.0012
    121  CZ2       13.8200    5.8400   33.3290 C.ar   81  TRP81       0.0191
    122  CZ3       14.0290    3.4440   33.1880 C.ar   81  TRP81       0.0001
    123  CH2       13.2800    4.5910   33.4440 C.ar   81  TRP81       0.0015
@<TRIPOS>BOND
     1    32    33    1
     2    33    34    1
     3    33    36    1
     4    35    34    2
     5    36    37    1
     6    74    73    2
     7    70    69    2
     8    73    72    1
     9    67    68    1
    10    37    38    1
    11    69    68    1
    12    69    71   am
    13    72    71    1
    14    72    75    1
    15    39    38   ar
    16    57    58    2
    17    57    56    1
    18    38    40   ar
    19   114   115    1
    20   114   111    1
    21   113   112    2
    22   115   116   ar
    23   115   117   ar
    24   116   118   ar
    25    56    55    1
    26    56    59    1
    27    41    42    1
    28   117   120   ar
    29   117   119   ar
    30    23    24    2
    31    23    22    1
    32   118   119   ar
    33   112   111    1
    34   120   122   ar
    35   119   121   ar
    36   122   123   ar
    37   111   110    1
    38   121   123   ar
    39    59    60    1
    40    46    45    1
    41    22    25    1
    42    22    21    1
    43    42    45    1
    44    42    43    1
    45    25    26    1
    46    61    60   ar
    47    61    63   ar
    48    44    43    2
    49    60    62   ar
    50    90    88    1
    51    27    26    1
    52    27    28    1
    53    63    65   ar
    54    62    64   ar
    55    92    93    1
    56    87    86    2
    57    86    85    1
    58    28    29    2
    59   102   104   ar
    60   102    99   ar
    61    88    85    1
    62    88    89    1
    63    65    64   ar
    64    65    66    1
    65   104   105   ar
    66    96    93    1
    67    96    97    1
    68    93    94    1
    69    91    89    1
    70    85    84    1
    71    29    30    1
    72    29    31    1
    73    99    97   ar
    74    99   101   ar
    75    97    98   ar
    76   105   103   ar
    77    94    95    2
    78   101   103   ar
    79   101   100   ar
    80    13    14   ar
    81    13    11   ar
    82    98   100   ar
    83    14    12   ar
    84    47    48    1
    85    54    52   ar
    86    17    18    2
    87    17    16    1
    88    11     8   ar
    89    53    52   ar
    90    52    51    1
    91    12    10   ar
    92    48    51    1
    93    48    49    1
    94    16    19    1
    95    16    15    1
    96   106   107    1
    97    19    20    1
    98     8    10   ar
    99     8     6   ar
   100    81    83    1
   101    81    80    1
   102     1     2    1
   103    10     9   ar
   104   108   107    1
   105   108   109    2
   106    49    50    2
   107    82    80    1
   108    79    78    2
   109    78    77    1
   110    80    77    1
   111     6     5    1
   112     6     7   ar
   113     2     5    1
   114     2     3    1
   115     9     7   ar
   116    77    76    1
   117     4     3    2
