@<TRIPOS>MOLECULE
tmp/2bs5A01.pdb
 91 88 0 0 0
SMALL
GASTEIGER

@<TRIPOS>ATOM
      1  N          7.6450    0.2830   40.8400 N.3    53  TRP53      -0.1241
      2  CA         7.3380   -0.0720   42.2140 C.3    53  TRP53       0.1605
      3  C          8.2620    0.7270   43.1030 C.2    53  TRP53       0.2264
      4  O          9.3580    1.1250   42.6760 O.2    53  TRP53      -0.2867
      5  CB         7.4670   -1.6080   42.4430 C.3    53  TRP53       0.0550
      6  CG         8.8640   -2.1080   42.3290 C.ar   53  TRP53       0.0003
      7  CD1        9.7690   -2.2660   43.3440 C.ar   53  TRP53       0.0946
      8  CD2        9.5380   -2.4800   41.1230 C.ar   53  TRP53       0.0152
      9  NE1       10.9620   -2.7110   42.8420 N.ar   53  TRP53      -0.2442
     10  CE2       10.8470   -2.8510   41.4790 C.ar   53  TRP53       0.0810
     11  CE3        9.1490   -2.5350   39.7740 C.ar   53  TRP53       0.0012
     12  CZ2       11.7740   -3.2720   40.5600 C.ar   53  TRP53       0.0191
     13  CZ3       10.0630   -2.9640   38.8390 C.ar   53  TRP53       0.0001
     14  CH2       11.3780   -3.3300   39.2360 C.ar   53  TRP53       0.0015
     15  N         11.6660    2.3030   41.5890 N.3    60  HIS60      -0.1241
     16  CA        12.2230    1.4430   40.5980 C.3    60  HIS60       0.1621
     17  C         11.2540    1.4030   39.4450 C.2    60  HIS60       0.2264
     18  O         10.0580    1.0930   39.6110 O.2    60  HIS60      -0.2867
     19  CB        12.5030    0.0850   41.1900 C.3    60  HIS60       0.0745
     20  CG        13.5020    0.1500   42.2910 C.ar   60  HIS60       0.0817
     21  ND1       13.1760    0.6130   43.5450 N.ar   60  HIS60      -0.2268
     22  CD2       14.8350   -0.0920   42.3120 C.ar   60  HIS60       0.1154
     23  CE1       14.2580    0.6060   44.3050 C.ar   60  HIS60       0.1986
     24  NE2       15.2760    0.1870   43.5810 N.ar   60  HIS60      -0.2212
     25  N         10.7660    0.0070   35.4090 N.3    62  ARG62      -0.1245
     26  CA        11.2200   -0.8390   34.2970 C.3    62  ARG62       0.1563
     27  C         10.4750   -0.4570   33.0200 C.2    62  ARG62       0.2260
     28  O          9.2560   -0.4270   32.9850 O.2    62  ARG62      -0.2867
     29  CB        11.0200   -2.3340   34.6200 C.3    62  ARG62       0.0307
     30  CG        11.7490   -2.8350   35.8860 C.3    62  ARG62       0.0489
     31  CD        13.3090   -2.9650   35.6320 C.3    62  ARG62       0.2205
     32  NE        14.0140   -3.4230   36.8250 N.pl3  62  ARG62      -0.0865
     33  CZ        14.5050   -2.6280   37.7630 C.cat  62  ARG62       0.5346
     34  NH1       14.4280   -1.2930   37.6370 N.pl3  62  ARG62       0.1354
     35  NH2       15.0840   -3.1740   38.8390 N.pl3  62  ARG62       0.1354
     36  N         10.0200   -1.3810   28.9940 N.3    64  TYR64      -0.1241
     37  CA        10.2110   -2.3890   27.9350 C.3    64  TYR64       0.1605
     38  C         10.0750   -1.7010   26.5950 C.2    64  TYR64       0.2264
     39  O          9.0230   -1.1960   26.2640 O.2    64  TYR64      -0.2867
     40  CB         9.2330   -3.5830   28.1190 C.3    64  TYR64       0.0534
     41  CG         9.4450   -4.1490   29.5170 C.ar   64  TYR64      -0.0201
     42  CD1       10.4280   -5.1150   29.7360 C.ar   64  TYR64      -0.0009
     43  CD2        8.7670   -3.6350   30.6150 C.ar   64  TYR64      -0.0009
     44  CE1       10.6820   -5.6030   30.9760 C.ar   64  TYR64       0.0417
     45  CE2        9.0250   -4.1230   31.9150 C.ar   64  TYR64       0.0417
     46  CZ        10.0080   -5.1010   32.0740 C.ar   64  TYR64       0.1957
     47  OH        10.3600   -5.5920   33.2990 O.3    64  TYR64      -0.2866
     48  N         14.6800   -4.3430   28.2020 N.3    73  GLU73      -0.1245
     49  CA        14.3650   -3.7330   29.4460 C.3    73  GLU73       0.1567
     50  C         15.4240   -2.6850   29.8270 C.2    73  GLU73       0.2260
     51  O         16.6320   -2.9220   29.7050 O.2    73  GLU73      -0.2867
     52  CB        14.2840   -4.8060   30.4860 C.3    73  GLU73       0.0388
     53  CG        13.8770   -4.3940   31.8370 C.3    73  GLU73       0.1160
     54  CD        13.9400   -5.5530   32.7600 C.2    73  GLU73       0.3649
     55  OE1       15.0370   -6.2210   32.8630 O.co2  73  GLU73      -0.2457
     56  OE2       12.8920   -5.8270   33.3690 O.co2  73  GLU73      -0.2457
     57  N         16.2370   -0.0730   33.1290 N.3    75  CYS75      -0.1235
     58  CA        16.0330   -0.1290   34.5780 C.3    75  CYS75       0.1677
     59  C         16.4120    1.2140   35.1880 C.2    75  CYS75       0.2270
     60  O         17.5500    1.6720   35.0790 O.2    75  CYS75      -0.2867
     61  CB        16.8970   -1.2250   35.1540 C.3    75  CYS75       0.0956
     62  SG        16.5940   -2.8960   34.4920 S.3    75  CYS75      -0.0801
     63  N         16.9350    2.5790   38.8200 N.3    77  ASP77      -0.1239
     64  CA        17.0250    2.1330   40.2060 C.3    77  ASP77       0.1674
     65  C         17.6250    3.1800   41.1220 C.2    77  ASP77       0.2266
     66  O         18.1230    2.8570   42.2090 O.2    77  ASP77      -0.2867
     67  CB        17.8350    0.8310   40.3000 C.3    77  ASP77       0.1410
     68  CG        17.2610   -0.2850   39.4490 C.2    77  ASP77       0.3668
     69  OD1       16.2660   -0.9120   39.8720 O.co2  77  ASP77      -0.2456
     70  OD2       17.7970   -0.5260   38.3390 O.co2  77  ASP77      -0.2456
     71  N         18.4160   -4.1350   31.4910 N.3    84  GLY84      -0.1210
     72  CA        18.0170   -5.1410   32.4640 C.3    84  GLY84       0.1956
     73  C         18.1960   -6.5570   31.9700 C.2    84  GLY84       0.2612
     74  O         18.4760   -6.7660   30.7950 O.2    84  GLY84      -0.2717
     75  N         18.0150   -7.5290   32.8640 N.am   85  ALA85      -0.1965
     76  CA        18.1440   -8.9470   32.4890 C.3    85  ALA85       0.1728
     77  C         17.1740   -9.4680   31.4090 C.2    85  ALA85       0.2616
     78  O         17.4990  -10.4700   30.7640 O.2    85  ALA85      -0.2715
     79  CB        18.0670   -9.8380   33.7080 C.3    85  ALA85       0.0334
     80  N         16.0190   -8.8240   31.2130 N.am   86  TYR86      -0.1974
     81  CA        14.9450   -9.3370   30.3450 C.3    86  TYR86       0.1639
     82  C         15.4170   -9.8940   29.0340 C.2    86  TYR86       0.2290
     83  O         16.1250   -9.2190   28.2580 O.2    86  TYR86      -0.2864
     84  CB        13.9090   -8.2480   29.9580 C.3    86  TYR86       0.0560
     85  CG        12.7150   -8.7480   29.1280 C.ar   86  TYR86      -0.0198
     86  CD1       11.5900   -9.2560   29.7490 C.ar   86  TYR86      -0.0009
     87  CD2       12.7130   -8.6830   27.7240 C.ar   86  TYR86      -0.0009
     88  CE1       10.5070   -9.6950   29.0610 C.ar   86  TYR86       0.0417
     89  CE2       11.6220   -9.1190   27.0010 C.ar   86  TYR86       0.0417
     90  CZ        10.5260   -9.6180   27.6740 C.ar   86  TYR86       0.1957
     91  OH         9.4400  -10.0490   26.9920 O.3    86  TYR86      -0.2866
@<TRIPOS>BOND
     1    39    38    2
     2    38    37    1
     3    91    90    1
     4    89    90   ar
     5    89    87   ar
     6    90    88   ar
     7    87    85   ar
     8    37    40    1
     9    37    36    1
    10    40    41    1
    11    48    49    1
    12    83    82    2
    13    82    81    1
    14    88    86   ar
    15    85    86   ar
    16    85    84    1
    17    49    50    1
    18    49    52    1
    19    41    42   ar
    20    41    43   ar
    21    51    50    2
    22    42    44   ar
    23    84    81    1
    24    81    80    1
    25    52    53    1
    26    43    45   ar
    27    78    77    2
    28    74    73    2
    29    44    46   ar
    30    80    77   am
    31    77    76    1
    32    71    72    1
    33    53    54    1
    34    45    46   ar
    35    73    72    1
    36    73    75   am
    37    46    47    1
    38    76    75    1
    39    76    79    1
    40    54    55   ar
    41    54    56   ar
    42    28    27    2
    43    27    26    1
    44    57    58    1
    45    26    29    1
    46    26    25    1
    47    62    61    1
    48    58    61    1
    49    58    59    1
    50    29    30    1
    51    60    59    2
    52    31    30    1
    53    31    32    1
    54    32    33    2
    55    34    33    1
    56    33    35    1
    57    70    68   ar
    58    63    64    1
    59    13    14   ar
    60    13    11   ar
    61    14    12   ar
    62    17    18    2
    63    17    16    1
    64    68    69   ar
    65    68    67    1
    66    11     8   ar
    67    64    67    1
    68    64    65    1
    69    12    10   ar
    70    16    19    1
    71    16    15    1
    72     1     2    1
    73    65    66    2
    74     8    10   ar
    75     8     6   ar
    76    19    20    1
    77    10     9   ar
    78     2     5    1
    79     2     3    1
    80    20    22   ar
    81    20    21   ar
    82    22    24   ar
    83     6     5    1
    84     6     7   ar
    85     4     3    2
    86     9     7   ar
    87    21    23   ar
    88    24    23   ar
