@<TRIPOS>MOLECULE
tmp/2bs6B01.pdb
 123 117 0 0 0
SMALL
GASTEIGER

@<TRIPOS>ATOM
      1  N         14.5640   27.9130   11.8880 N.3    10  TRP10      -0.1241
      2  CA        13.3370   28.4870   11.3690 C.3    10  TRP10       0.1605
      3  C         13.6050   29.6290   10.3860 C.2    10  TRP10       0.2264
      4  O         14.6680   30.2720   10.4110 O.2    10  TRP10      -0.2867
      5  CB        12.4620   28.9690   12.5100 C.3    10  TRP10       0.0550
      6  CG        13.0310   30.0340   13.3720 C.ar   10  TRP10       0.0003
      7  CD1       12.8750   31.3800   13.2280 C.ar   10  TRP10       0.0946
      8  CD2       13.8050   29.8530   14.5790 C.ar   10  TRP10       0.0152
      9  NE1       13.5300   32.0540   14.2450 N.ar   10  TRP10      -0.2442
     10  CE2       14.0970   31.1360   15.0870 C.ar   10  TRP10       0.0810
     11  CE3       14.3120   28.7330   15.2540 C.ar   10  TRP10       0.0012
     12  CZ2       14.8450   31.3280   16.2640 C.ar   10  TRP10       0.0191
     13  CZ3       15.0520   28.9150   16.4270 C.ar   10  TRP10       0.0001
     14  CH2       15.3330   30.2020   16.9090 C.ar   10  TRP10       0.0015
     15  N         17.3970   31.3030   11.2220 N.3    15  SER15      -0.1217
     16  CA        17.8640   31.2240   12.6060 C.3    15  SER15       0.1889
     17  C         18.0810   29.7410   12.9580 C.2    15  SER15       0.2288
     18  O         17.2990   28.8650   12.5240 O.2    15  SER15      -0.2866
     19  CB        16.9060   31.9040   13.5920 C.3    15  SER15       0.2089
     20  OG        16.9720   33.3190   13.5520 O.3    15  SER15      -0.2183
     21  N         19.3320   27.1090   16.3620 N.3    17  ARG17      -0.1245
     22  CA        19.7000   26.9130   17.7510 C.3    17  ARG17       0.1563
     23  C         20.2600   25.5080   17.8620 C.2    17  ARG17       0.2260
     24  O         19.6220   24.5320   17.4240 O.2    17  ARG17      -0.2867
     25  CB        18.5070   27.0900   18.6930 C.3    17  ARG17       0.0307
     26  CG        17.8620   28.4770   18.6330 C.3    17  ARG17       0.0489
     27  CD        18.8140   29.5400   19.2180 C.3    17  ARG17       0.2205
     28  NE        18.2020   30.8690   19.1930 N.pl3  17  ARG17      -0.0865
     29  CZ        18.2600   31.7200   18.1680 C.cat  17  ARG17       0.5346
     30  NH1       18.9140   31.4280   17.0610 N.pl3  17  ARG17       0.1354
     31  NH2       17.6750   32.8990   18.2490 N.pl3  17  ARG17       0.1354
     32  N         23.5020   26.4150   24.9050 N.3    28  GLU28      -0.1245
     33  CA        22.8300   26.7760   23.6610 C.3    28  GLU28       0.1567
     34  C         23.6880   27.7420   22.8800 C.2    28  GLU28       0.2260
     35  O         24.1930   28.7330   23.4290 O.2    28  GLU28      -0.2867
     36  CB        21.4540   27.3760   23.9710 C.3    28  GLU28       0.0388
     37  CG        20.6240   27.8780   22.7280 C.3    28  GLU28       0.1160
     38  CD        19.4430   28.7960   23.1150 C.2    28  GLU28       0.3649
     39  OE1       19.6340   29.6960   23.9670 O.co2  28  GLU28      -0.2457
     40  OE2       18.3180   28.6420   22.5570 O.co2  28  GLU28      -0.2457
     41  N         23.5760   30.0100   19.1340 N.3    30  CYS30      -0.1235
     42  CA        22.5560   30.6660   18.3480 C.3    30  CYS30       0.1677
     43  C         23.1280   31.4000   17.1410 C.2    30  CYS30       0.2270
     44  O         24.1680   32.1040   17.2580 O.2    30  CYS30      -0.2867
     45  CB        21.8620   31.7160   19.2140 C.3    30  CYS30       0.0956
     46  SG        21.3840   31.1530   20.8640 S.3    30  CYS30      -0.0801
     47  N         21.4460   33.9700   14.1940 N.3    32  ASP32      -0.1239
     48  CA        20.3450   34.7200   13.5830 C.3    32  ASP32       0.1674
     49  C         20.7940   35.4810   12.3090 C.2    32  ASP32       0.2266
     50  O         20.1320   36.4260   11.9070 O.2    32  ASP32      -0.2867
     51  CB        19.6940   35.7030   14.5580 C.3    32  ASP32       0.1410
     52  CG        19.1930   35.0450   15.8040 C.2    32  ASP32       0.3668
     53  OD1       18.3710   34.0950   15.6530 O.co2  32  ASP32      -0.2456
     54  OD2       19.5920   35.4780   16.9010 O.co2  32  ASP32      -0.2456
     55  N         26.3620   33.0590   18.8110 N.3    37  TYR37      -0.1241
     56  CA        26.4840   33.5370   20.1630 C.3    37  TYR37       0.1605
     57  C         25.8940   32.5540   21.1650 C.2    37  TYR37       0.2264
     58  O         25.1170   31.6450   20.8180 O.2    37  TYR37      -0.2867
     59  CB        25.8050   34.8910   20.3280 C.3    37  TYR37       0.0534
     60  CG        24.3220   34.8990   20.0780 C.ar   37  TYR37      -0.0201
     61  CD1       23.4260   34.7560   21.1270 C.ar   37  TYR37      -0.0009
     62  CD2       23.8170   35.0450   18.7880 C.ar   37  TYR37      -0.0009
     63  CE1       22.0480   34.7610   20.9040 C.ar   37  TYR37       0.0417
     64  CE2       22.4360   35.0730   18.5530 C.ar   37  TYR37       0.0417
     65  CZ        21.5640   34.9370   19.6340 C.ar   37  TYR37       0.1957
     66  OH        20.1960   34.9410   19.4480 O.3    37  TYR37      -0.2866
     67  N         23.4990   31.4960   23.8740 N.3    39  GLY39      -0.1210
     68  CA        22.1060   31.7950   24.1990 C.3    39  GLY39       0.1956
     69  C         21.7420   31.7580   25.6740 C.2    39  GLY39       0.2611
     70  O         22.5500   31.3240   26.5320 O.2    39  GLY39      -0.2717
     71  N         20.5150   32.2110   25.9620 N.am   40  ALA40      -0.1979
     72  CA        20.0050   32.3110   27.3130 C.3    40  ALA40       0.1597
     73  C         19.7880   30.9440   27.9140 C.2    40  ALA40       0.2287
     74  O         19.7860   30.8240   29.1440 O.2    40  ALA40      -0.2864
     75  CB        18.7190   33.1010   27.3530 C.3    40  ALA40       0.0319
     76  N          8.9820   32.7840   17.1200 N.3    59  ILE59      -0.1245
     77  CA         9.4370   31.4040   17.3120 C.3    59  ILE59       0.1561
     78  C          8.9740   30.9400   18.7040 C.2    59  ILE59       0.2260
     79  O          9.0240   31.6960   19.6850 O.2    59  ILE59      -0.2867
     80  CB        10.9800   31.2570   17.2110 C.3    59  ILE59       0.0252
     81  CG1       11.4060   29.7730   17.1430 C.3    59  ILE59       0.0019
     82  CG2       11.6840   31.9770   18.3410 C.3    59  ILE59       0.0019
     83  CD1       10.7670   29.0330   15.9710 C.3    59  ILE59       0.0001
     84  N          9.7600   27.4980   21.1220 N.3    61  ILE61      -0.1245
     85  CA        10.7150   26.4110   21.2640 C.3    61  ILE61       0.1561
     86  C         10.4070   25.5750   22.4980 C.2    61  ILE61       0.2260
     87  O         10.0320   26.0980   23.5540 O.2    61  ILE61      -0.2867
     88  CB        12.2030   26.8800   21.3320 C.3    61  ILE61       0.0252
     89  CG1       12.5130   27.9720   20.2820 C.3    61  ILE61       0.0019
     90  CG2       13.1740   25.6920   21.2630 C.3    61  ILE61       0.0019
     91  CD1       13.9090   28.5860   20.3760 C.3    61  ILE61       0.0001
     92  N         10.1670   28.2620   25.5020 N.3    76  TRP76      -0.1241
     93  CA        10.4550   29.6190   25.0630 C.3    76  TRP76       0.1605
     94  C          9.2810   30.0740   24.1860 C.2    76  TRP76       0.2264
     95  O          8.9390   29.4060   23.2130 O.2    76  TRP76      -0.2867
     96  CB        11.7670   29.7170   24.2620 C.3    76  TRP76       0.0550
     97  CG        11.9980   31.0970   23.6730 C.ar   76  TRP76       0.0003
     98  CD1       11.5140   31.5890   22.4860 C.ar   76  TRP76       0.0946
     99  CD2       12.7480   32.1350   24.2650 C.ar   76  TRP76       0.0152
    100  NE1       11.9410   32.8930   22.2970 N.ar   76  TRP76      -0.2442
    101  CE2       12.6810   33.2620   23.3970 C.ar   76  TRP76       0.0810
    102  CE3       13.4800   32.2360   25.4540 C.ar   76  TRP76       0.0012
    103  CZ2       13.3130   34.4570   23.6940 C.ar   76  TRP76       0.0191
    104  CZ3       14.1110   33.4170   25.7440 C.ar   76  TRP76       0.0001
    105  CH2       14.0270   34.5230   24.8630 C.ar   76  TRP76       0.0015
    106  N          9.1360   33.7490   23.6560 N.3    78  GLY78      -0.1225
    107  CA         9.5530   35.1070   23.3350 C.3    78  GLY78       0.1811
    108  C          9.9870   35.9290   24.5380 C.2    78  GLY78       0.2280
    109  O         10.5980   36.9880   24.3740 O.2    78  GLY78      -0.2866
    110  N         12.8010   31.5560   29.3780 N.3    81  TRP81      -0.1241
    111  CA        12.6920   30.1210   29.4640 C.3    81  TRP81       0.1605
    112  C         12.0300   29.7110   30.7700 C.2    81  TRP81       0.2264
    113  O         12.4640   30.1220   31.8150 O.2    81  TRP81      -0.2867
    114  CB        14.0560   29.4780   29.4170 C.3    81  TRP81       0.0550
    115  CG        14.7040   29.4840   28.0750 C.ar   81  TRP81       0.0003
    116  CD1       15.6880   30.3310   27.6800 C.ar   81  TRP81       0.0946
    117  CD2       14.4510   28.6060   26.9830 C.ar   81  TRP81       0.0152
    118  NE1       16.0830   30.0320   26.4040 N.ar   81  TRP81      -0.2442
    119  CE2       15.3100   29.0110   25.9240 C.ar   81  TRP81       0.0810
    120  CE3       13.5540   27.5630   26.7580 C.ar   81  TRP81       0.0012
    121  CZ2       15.3490   28.3560   24.7110 C.ar   81  TRP81       0.0191
    122  CZ3       13.5990   26.9040   25.5390 C.ar   81  TRP81       0.0001
    123  CH2       14.4770   27.3190   24.5230 C.ar   81  TRP81       0.0015
@<TRIPOS>BOND
     1     3     4    2
     2     3     2    1
     3    15    16    1
     4     2     1    1
     5     2     5    1
     6    50    49    2
     7    49    48    1
     8     5     6    1
     9    18    17    2
    10    16    17    1
    11    16    19    1
    12     7     6   ar
    13     7     9   ar
    14     6     8   ar
    15    20    19    1
    16    48    47    1
    17    48    51    1
    18     9    10   ar
    19    51    52    1
    20     8    10   ar
    21     8    11   ar
    22    10    12   ar
    23    11    13   ar
    24    53    52   ar
    25    52    54   ar
    26    83    81    1
    27    12    14   ar
    28    21    22    1
    29    13    14   ar
    30    30    29    1
    31    76    77    1
    32    43    44    2
    33    43    42    1
    34    81    80    1
    35    80    77    1
    36    80    82    1
    37    77    78    1
    38    24    23    2
    39    22    23    1
    40    22    25    1
    41    29    31    1
    42    29    28    2
    43    42    41    1
    44    42    45    1
    45    64    62   ar
    46    64    65   ar
    47    26    25    1
    48    26    27    1
    49    78    79    2
    50    62    60   ar
    51    55    56    1
    52    28    27    1
    53    45    46    1
    54    66    65    1
    55    65    63   ar
    56    60    59    1
    57    60    61   ar
    58    56    59    1
    59    56    57    1
    60    89    91    1
    61    89    88    1
    62    58    57    2
    63    63    61   ar
    64    84    85    1
    65    90    88    1
    66    85    88    1
    67    85    86    1
    68   100    98   ar
    69   100   101   ar
    70    98    97   ar
    71    86    87    2
    72    40    38   ar
    73    37    38    1
    74    37    36    1
    75    34    35    2
    76    34    33    1
    77    38    39   ar
    78    95    94    2
    79   107   106    1
    80   107   108    1
    81   101   103   ar
    82   101    99   ar
    83    33    36    1
    84    33    32    1
    85    97    96    1
    86    97    99   ar
    87   103   105   ar
    88    67    68    1
    89    94    93    1
    90    68    69    1
    91    96    93    1
    92    99   102   ar
    93   109   108    2
    94   123   121   ar
    95   123   122   ar
    96   121   119   ar
    97   105   104   ar
    98    93    92    1
    99   102   104   ar
   100   122   120   ar
   101    69    71   am
   102    69    70    2
   103   119   118   ar
   104   119   117   ar
   105    71    72    1
   106   118   116   ar
   107   120   117   ar
   108   117   115   ar
   109    72    75    1
   110    72    73    1
   111   116   115   ar
   112    73    74    2
   113   115   114    1
   114   110   111    1
   115   114   111    1
   116   111   112    1
   117   112   113    2
