@<TRIPOS>MOLECULE
tmp/2bs6C01.pdb
 130 125 0 0 0
SMALL
GASTEIGER

@<TRIPOS>ATOM
      1  N          4.2100   20.0480   14.7590 N.3    10  TRP10      -0.1241
      2  CA         3.5930   20.5690   13.5520 C.3    10  TRP10       0.1605
      3  C          2.4680   21.5370   13.8220 C.2    10  TRP10       0.2264
      4  O          1.8350   21.5170   14.8900 O.2    10  TRP10      -0.2867
      5  CB         3.1220   19.4330   12.6520 C.3    10  TRP10       0.0550
      6  CG         2.0430   18.5440   13.1970 C.ar   10  TRP10       0.0003
      7  CD1        0.7190   18.6780   12.9980 C.ar   10  TRP10       0.0946
      8  CD2        2.2200   17.3560   13.9690 C.ar   10  TRP10       0.0152
      9  NE1        0.0330   17.6620   13.6210 N.ar   10  TRP10      -0.2442
     10  CE2        0.9370   16.8270   14.2180 C.ar   10  TRP10       0.0810
     11  CE3        3.3410   16.6800   14.4800 C.ar   10  TRP10       0.0012
     12  CZ2        0.7410   15.6510   14.9350 C.ar   10  TRP10       0.0191
     13  CZ3        3.1400   15.5210   15.1950 C.ar   10  TRP10       0.0001
     14  CH2        1.8630   15.0360   15.4490 C.ar   10  TRP10       0.0015
     15  N          0.8230   20.6360   17.6220 N.3    15  SER15      -0.1217
     16  CA         0.9520   19.2720   18.1030 C.3    15  SER15       0.1889
     17  C          2.4470   18.9710   18.2610 C.2    15  SER15       0.2288
     18  O          3.2580   19.4090   17.4340 O.2    15  SER15      -0.2866
     19  CB         0.3320   18.2550   17.1410 C.3    15  SER15       0.2089
     20  OG        -1.0680   18.3600   17.1030 O.3    15  SER15      -0.2183
     21  N          5.1180   15.5870   19.4370 N.3    17  ARG17      -0.1245
     22  CA         5.3640   14.2250   19.8570 C.3    17  ARG17       0.1563
     23  C          6.7650   14.1000   20.3790 C.2    17  ARG17       0.2260
     24  O          7.7330   14.5060   19.7320 O.2    17  ARG17      -0.2867
     25  CB         5.1670   13.2500   18.7050 C.3    17  ARG17       0.0307
     26  CG         3.7850   13.3310   18.0730 C.3    17  ARG17       0.0489
     27  CD         2.7230   12.7500   19.0370 C.3    17  ARG17       0.2205
     28  NE         1.3590   12.7530   18.4680 N.pl3  17  ARG17      -0.0865
     29  CZ         0.5160   13.7810   18.4830 C.cat  17  ARG17       0.5346
     30  NH1        0.8300   14.9380   19.0410 N.pl3  17  ARG17       0.1354
     31  NH2       -0.6840   13.6340   17.9390 N.pl3  17  ARG17       0.1354
     32  N          6.1040    7.1130   23.6810 N.3    28  GLU28      -0.1245
     33  CA         5.6930    8.3610   23.0430 C.3    28  GLU28       0.1567
     34  C          4.7360    9.1190   23.9640 C.2    28  GLU28       0.2260
     35  O          3.7780    8.5450   24.5210 O.2    28  GLU28      -0.2867
     36  CB         5.0350    8.0410   21.6980 C.3    28  GLU28       0.0388
     37  CG         4.4950    9.2160   20.8970 C.3    28  GLU28       0.1160
     38  CD         3.5960    8.7760   19.7660 C.2    28  GLU28       0.3649
     39  OE1        2.7180    7.8870   19.9750 O.co2  28  GLU28      -0.2457
     40  OE2        3.7520    9.3600   18.6560 O.co2  28  GLU28      -0.2457
     41  N          2.3720   12.7840   23.8330 N.3    30  CYS30      -0.1235
     42  CA         1.6900   13.5720   22.7840 C.3    30  CYS30       0.1677
     43  C          0.9550   14.7860   23.3340 C.2    30  CYS30       0.2270
     44  O          0.2740   14.7080   24.3760 O.2    30  CYS30      -0.2867
     45  CB         0.6550   12.6910   22.0680 C.3    30  CYS30       0.0956
     46  SG         1.2010   11.0340   21.5870 S.3    30  CYS30      -0.0801
     47  N         -1.7100   17.7560   21.6760 N.3    32  ASP32      -0.1239
     48  CA        -2.4850   18.3520   20.5870 C.3    32  ASP32       0.1674
     49  C         -3.2540   19.5890   21.0500 C.2    32  ASP32       0.2266
     50  O         -4.2380   19.9830   20.4100 O.2    32  ASP32      -0.2867
     51  CB        -3.4520   17.3400   19.9740 C.3    32  ASP32       0.1410
     52  CG        -2.7770   16.0790   19.4800 C.2    32  ASP32       0.3668
     53  OD1       -1.8550   16.1780   18.6310 O.co2  32  ASP32      -0.2456
     54  OD2       -3.2050   14.9890   19.8910 O.co2  32  ASP32      -0.2456
     55  N         -0.6910   13.1830   26.6570 N.3    37  TYR37      -0.1227
     56  CA        -1.1610   11.8050   26.7670 C.3    37  TYR37       0.1736
     57  C         -0.1600   10.8140   26.1770 C.2    37  TYR37       0.2596
     58  O          0.7390   11.1790   25.3880 O.2    37  TYR37      -0.2718
     59  CB        -2.5480   11.6620   26.1300 C.3    37  TYR37       0.0548
     60  CG        -2.5850   11.9190   24.6420 C.ar   37  TYR37      -0.0200
     61  CD1       -2.4950   10.8570   23.7340 C.ar   37  TYR37      -0.0009
     62  CD2       -2.7320   13.2060   24.1270 C.ar   37  TYR37      -0.0009
     63  CE1       -2.5180   11.0810   22.3580 C.ar   37  TYR37       0.0417
     64  CE2       -2.7730   13.4310   22.7310 C.ar   37  TYR37       0.0417
     65  CZ        -2.6660   12.3460   21.8610 C.ar   37  TYR37       0.1957
     66  OH        -2.6890   12.5190   20.4880 O.3    37  TYR37      -0.2866
     67  N         -0.2970    9.5640   26.5870 N.am   38  THR38      -0.1939
     68  CA         0.5810    8.5080   26.1290 C.3    38  THR38       0.2028
     69  C          0.1050    8.0960   24.7630 C.2    38  THR38       0.2643
     70  O         -1.0650    7.7890   24.5550 O.2    38  THR38      -0.2714
     71  CB         0.5840    7.3180   27.1200 C.3    38  THR38       0.1808
     72  OG1        1.2000    7.7710   28.3210 O.3    38  THR38      -0.2208
     73  CG2        1.3940    6.1800   26.5830 C.3    38  THR38       0.0379
     74  N          1.0190    8.1130   23.8080 N.am   39  GLY39      -0.1939
     75  CA         0.7010    7.7540   22.4440 C.3    39  GLY39       0.2014
     76  C          0.7280    6.2600   22.1570 C.2    39  GLY39       0.2638
     77  O          1.1490    5.4450   22.9740 O.2    39  GLY39      -0.2714
     78  N          0.2600    5.9350   20.9700 N.am   40  ALA40      -0.1977
     79  CA         0.1680    4.5720   20.4680 C.3    40  ALA40       0.1597
     80  C          1.5600    3.9560   20.1820 C.2    40  ALA40       0.2287
     81  O          1.7190    2.7550   20.1940 O.2    40  ALA40      -0.2864
     82  CB        -0.6710    4.5580   19.2190 C.3    40  ALA40       0.0319
     83  N         -0.7850   14.6950    9.1740 N.3    59  ILE59      -0.1245
     84  CA         0.5880   14.5050    9.6060 C.3    59  ILE59       0.1561
     85  C          1.0910   13.1560    9.1480 C.2    59  ILE59       0.2260
     86  O          0.3550   12.1570    9.2050 O.2    59  ILE59      -0.2867
     87  CB         0.7420   14.6080   11.1470 C.3    59  ILE59       0.0252
     88  CG1        2.2090   14.7380   11.5490 C.3    59  ILE59       0.0019
     89  CG2        0.1090   13.4510   11.8720 C.3    59  ILE59       0.0019
     90  CD1        2.9150   15.9180   10.9420 C.3    59  ILE59       0.0001
     91  N          4.6150   10.8290    9.9990 N.3    61  ILE61      -0.1245
     92  CA         5.7370   10.6960   10.9040 C.3    61  ILE61       0.1561
     93  C          6.6220    9.4960   10.5330 C.2    61  ILE61       0.2260
     94  O          6.1370    8.3990   10.2050 O.2    61  ILE61      -0.2867
     95  CB         5.2940   10.5800   12.3760 C.3    61  ILE61       0.0252
     96  CG1        4.2140   11.6430   12.6790 C.3    61  ILE61       0.0019
     97  CG2        6.4860   10.7170   13.3210 C.3    61  ILE61       0.0019
     98  CD1        3.6170   11.5230   14.0350 C.3    61  ILE61       0.0001
     99  N          3.8700    6.5160   10.4410 N.3    76  TRP76      -0.1241
    100  CA         2.5200    6.9150   10.7540 C.3    76  TRP76       0.1605
    101  C          2.0130    7.7650    9.5950 C.2    76  TRP76       0.2264
    102  O          2.6640    8.7380    9.1570 O.2    76  TRP76      -0.2867
    103  CB         2.4370    7.7460   12.0300 C.3    76  TRP76       0.0550
    104  CG         1.0590    8.2560   12.2920 C.ar   76  TRP76       0.0003
    105  CD1        0.4950    9.3940   11.7900 C.ar   76  TRP76       0.0946
    106  CD2        0.0570    7.6270   13.0920 C.ar   76  TRP76       0.0152
    107  NE1       -0.7870    9.5310   12.2610 N.ar   76  TRP76      -0.2442
    108  CE2       -1.0870    8.4490   13.0520 C.ar   76  TRP76       0.0810
    109  CE3        0.0170    6.4500   13.8460 C.ar   76  TRP76       0.0012
    110  CZ2       -2.2870    8.1060   13.7250 C.ar   76  TRP76       0.0191
    111  CZ3       -1.1530    6.1270   14.5230 C.ar   76  TRP76       0.0001
    112  CH2       -2.2950    6.9540   14.4440 C.ar   76  TRP76       0.0015
    113  N         -1.7450    8.2220    9.5810 N.3    78  GLY78      -0.1225
    114  CA        -3.0970    8.5730   10.0360 C.3    78  GLY78       0.1811
    115  C         -3.8670    7.3680   10.5240 C.2    78  GLY78       0.2280
    116  O         -4.9110    7.5010   11.1740 O.2    78  GLY78      -0.2866
    117  N          0.7580    2.7590   13.0900 N.3    81  TRP81      -0.1241
    118  CA         2.1720    2.6890   12.8610 C.3    81  TRP81       0.1605
    119  C          2.4720    1.3970   12.1420 C.2    81  TRP81       0.2264
    120  O          1.9590    0.3430   12.5420 O.2    81  TRP81      -0.2867
    121  CB         2.8980    2.6300   14.1750 C.3    81  TRP81       0.0550
    122  CG         2.8690    3.9130   14.9060 C.ar   81  TRP81       0.0003
    123  CD1        2.0550    4.2690   15.9230 C.ar   81  TRP81       0.0946
    124  CD2        3.7010    5.0210   14.6360 C.ar   81  TRP81       0.0152
    125  NE1        2.3450    5.5510   16.3370 N.ar   81  TRP81      -0.2442
    126  CE2        3.3520    6.0410   15.5480 C.ar   81  TRP81       0.0810
    127  CE3        4.7290    5.2500   13.7200 C.ar   81  TRP81       0.0012
    128  CZ2        3.9890    7.2630   15.5730 C.ar   81  TRP81       0.0191
    129  CZ3        5.3690    6.4710   13.7620 C.ar   81  TRP81       0.0001
    130  CH2        4.9930    7.4620   14.6710 C.ar   81  TRP81       0.0015
@<TRIPOS>BOND
     1    85    86    2
     2    85    84    1
     3   102   101    2
     4    83    84    1
     5   113   114    1
     6   101   100    1
     7    84    87    1
     8    91    92    1
     9   114   115    1
    10    94    93    2
    11    99   100    1
    12   115   116    2
    13    93    92    1
    14   100   103    1
    15    92    95    1
    16    90    88    1
    17    87    88    1
    18    87    89    1
    19   105   107   ar
    20   105   104   ar
    21   103   104    1
    22   119   120    2
    23   119   118    1
    24   107   108   ar
    25   104   106   ar
    26    95    96    1
    27    95    97    1
    28     5     6    1
    29     5     2    1
    30    96    98    1
    31   118   117    1
    32   118   121    1
    33     7     6   ar
    34     7     9   ar
    35   108   106   ar
    36   108   110   ar
    37   106   109   ar
    38     6     8   ar
    39     2     3    1
    40     2     1    1
    41     9    10   ar
    42   127   129   ar
    43   127   124   ar
    44   110   112   ar
    45   129   130   ar
    46     3     4    2
    47   109   111   ar
    48     8    10   ar
    49     8    11   ar
    50   121   122    1
    51    10    12   ar
    52   112   111   ar
    53    11    13   ar
    54   124   122   ar
    55   124   126   ar
    56   130   128   ar
    57   122   123   ar
    58    12    14   ar
    59    13    14   ar
    60   126   128   ar
    61   126   125   ar
    62   123   125   ar
    63    20    19    1
    64    19    16    1
    65    18    17    2
    66    15    16    1
    67    31    29    1
    68    26    25    1
    69    26    27    1
    70    16    17    1
    71    28    29    2
    72    28    27    1
    73    29    30    1
    74    53    52   ar
    75    40    38   ar
    76    25    22    1
    77    82    79    1
    78    21    22    1
    79    52    54   ar
    80    52    51    1
    81    24    23    2
    82    38    39   ar
    83    38    37    1
    84    22    23    1
    85    51    48    1
    86    80    81    2
    87    80    79    1
    88    50    49    2
    89    79    78    1
    90    66    65    1
    91    48    49    1
    92    48    47    1
    93    37    36    1
    94    78    76   am
    95    46    45    1
    96    36    33    1
    97    65    63   ar
    98    65    64   ar
    99    45    42    1
   100    76    75    1
   101    76    77    2
   102    63    61   ar
   103    75    74    1
   104    64    62   ar
   105    42    43    1
   106    42    41    1
   107    33    32    1
   108    33    34    1
   109    43    44    2
   110    61    60   ar
   111    74    69   am
   112    34    35    2
   113    62    60   ar
   114    70    69    2
   115    60    59    1
   116    69    68    1
   117    58    57    2
   118    68    67    1
   119    68    71    1
   120    59    56    1
   121    57    67   am
   122    57    56    1
   123    73    71    1
   124    55    56    1
   125    71    72    1
