@<TRIPOS>MOLECULE
tmp/2bs7A00.pdb
 98 95 0 0 0
SMALL
GASTEIGER

@<TRIPOS>ATOM
      1  N        -16.0480  -26.2140    1.7700 N.3    43  ALA43      -0.1231
      2  CA       -15.5020  -26.8070    0.5530 C.3    43  ALA43       0.1694
      3  C        -16.5020  -27.6660   -0.2090 C.2    43  ALA43       0.2592
      4  O        -16.2320  -28.0620   -1.3550 O.2    43  ALA43      -0.2718
      5  CB       -14.2690  -27.6440    0.8950 C.3    43  ALA43       0.0304
      6  N        -17.6660  -27.9100    0.3930 N.am   44  ASN44      -0.1974
      7  CA       -18.6790  -28.8060   -0.2070 C.3    44  ASN44       0.1688
      8  C        -20.1210  -28.3070   -0.2760 C.2    44  ASN44       0.2292
      9  O        -20.9640  -28.7110    0.5240 O.2    44  ASN44      -0.2864
     10  CB       -18.6520  -30.1320    0.5630 C.3    44  ASN44       0.1181
     11  CG       -17.2490  -30.6880    0.6870 C.2    44  ASN44       0.2629
     12  OD1      -16.5720  -30.9000   -0.3180 O.2    44  ASN44      -0.2716
     13  ND2      -16.8010  -30.9230    1.9210 N.am   44  ASN44      -0.0877
     14  N        -13.9180  -18.8490   -4.4430 N.3    88  ASP88      -0.1225
     15  CA       -13.8010  -20.2730   -4.2800 C.3    88  ASP88       0.1805
     16  C        -13.5000  -20.6040   -2.8130 C.2    88  ASP88       0.2598
     17  O        -13.2340  -19.7170   -1.9950 O.2    88  ASP88      -0.2718
     18  CB       -12.7050  -20.8050   -5.2130 C.3    88  ASP88       0.1424
     19  CG       -12.7270  -22.3260   -5.3320 C.2    88  ASP88       0.3668
     20  OD1      -13.8260  -22.9140   -5.1910 O.co2  88  ASP88      -0.2456
     21  OD2      -11.6480  -22.9090   -5.5760 O.co2  88  ASP88      -0.2456
     22  N        -13.5440  -21.8900   -2.4980 N.am   89  THR89      -0.1953
     23  CA       -13.3150  -22.3840   -1.1410 C.3    89  THR89       0.1897
     24  C        -12.2450  -21.6960   -0.3260 C.2    89  THR89       0.2313
     25  O        -12.5340  -21.1810    0.7540 O.2    89  THR89      -0.2863
     26  CB       -13.0390  -23.9100   -1.1830 C.3    89  THR89       0.1794
     27  OG1      -14.0860  -24.5210   -1.9350 O.3    89  THR89      -0.2208
     28  CG2      -12.9910  -24.5150    0.2370 C.3    89  THR89       0.0378
     29  N         -8.3180  -17.2150   -2.2710 N.3    93  ARG93      -0.1245
     30  CA        -8.8430  -17.0290   -3.6180 C.3    93  ARG93       0.1563
     31  C         -9.9770  -16.0130   -3.6650 C.2    93  ARG93       0.2260
     32  O        -10.5760  -15.8150   -4.7070 O.2    93  ARG93      -0.2867
     33  CB        -9.3440  -18.3700   -4.1330 C.3    93  ARG93       0.0307
     34  CG        -8.2920  -19.4620   -4.0370 C.3    93  ARG93       0.0489
     35  CD        -7.2550  -19.3140   -5.1340 C.3    93  ARG93       0.2205
     36  NE        -6.0060  -20.0260   -4.8540 N.pl3  93  ARG93      -0.0865
     37  CZ        -5.9080  -21.3100   -4.5080 C.cat  93  ARG93       0.5346
     38  NH1       -4.7050  -21.8340   -4.2830 N.pl3  93  ARG93       0.1354
     39  NH2       -6.9960  -22.0710   -4.3740 N.pl3  93  ARG93       0.1354
     40  N        -15.2190  -16.4820   -9.2100 N.3   106  PHE106     -0.1241
     41  CA       -14.3900  -17.6880   -9.3490 C.3   106  PHE106      0.1605
     42  C        -14.5180  -18.0880  -10.7950 C.2   106  PHE106      0.2264
     43  O        -15.5810  -18.5460  -11.2190 O.2   106  PHE106     -0.2867
     44  CB       -14.8580  -18.8450   -8.4580 C.3   106  PHE106      0.0534
     45  CG       -14.1120  -20.1600   -8.7440 C.ar  106  PHE106     -0.0203
     46  CD1      -12.7160  -20.1570   -8.9610 C.ar  106  PHE106     -0.0042
     47  CD2      -14.7800  -21.3770   -8.7740 C.ar  106  PHE106     -0.0042
     48  CE1      -12.0040  -21.3380   -9.1950 C.ar  106  PHE106     -0.0003
     49  CE2      -14.0720  -22.5820   -9.0090 C.ar  106  PHE106     -0.0003
     50  CZ       -12.6750  -22.5550   -9.2200 C.ar  106  PHE106     -0.0000
     51  N        -13.7080  -24.2190  -12.9420 N.3   109  TRP109     -0.1241
     52  CA       -12.9180  -25.3920  -13.2800 C.3   109  TRP109      0.1605
     53  C        -13.8690  -26.4560  -13.7990 C.2   109  TRP109      0.2264
     54  O        -15.0940  -26.3360  -13.6620 O.2   109  TRP109     -0.2867
     55  CB       -12.0970  -25.8890  -12.0790 C.3   109  TRP109      0.0550
     56  CG       -12.8860  -26.5760  -11.0110 C.ar  109  TRP109      0.0003
     57  CD1      -13.9080  -26.0480  -10.2790 C.ar  109  TRP109      0.0946
     58  CD2      -12.7430  -27.9380  -10.5780 C.ar  109  TRP109      0.0152
     59  NE1      -14.4180  -26.9980   -9.4210 N.ar  109  TRP109     -0.2442
     60  CE2      -13.7220  -28.1650   -9.5820 C.ar  109  TRP109      0.0810
     61  CE3      -11.8850  -28.9900  -10.9390 C.ar  109  TRP109      0.0012
     62  CZ2      -13.8700  -29.4070   -8.9330 C.ar  109  TRP109      0.0191
     63  CZ3      -12.0320  -30.2250  -10.2940 C.ar  109  TRP109      0.0001
     64  CH2      -13.0230  -30.4170   -9.2980 C.ar  109  TRP109      0.0015
     65  N        -15.8230  -37.7400   -9.6350 N.3   115  LEU115     -0.1231
     66  CA       -16.7830  -37.0640   -8.7780 C.3   115  LEU115      0.1693
     67  C        -16.0450  -36.1570   -7.8050 C.2   115  LEU115      0.2593
     68  O        -15.0240  -36.5450   -7.2260 O.2   115  LEU115     -0.2718
     69  CB       -17.5920  -38.1090   -8.0060 C.3   115  LEU115      0.0284
     70  CG       -19.1120  -37.9550   -7.9720 C.3   115  LEU115      0.0019
     71  CD1      -19.6500  -37.8220   -9.3810 C.3   115  LEU115      0.0001
     72  CD2      -19.7340  -39.1680   -7.2730 C.3   115  LEU115      0.0001
     73  N        -16.5460  -34.9410   -7.6270 N.am  116  SER116     -0.1938
     74  CA       -15.8920  -34.0260   -6.6930 C.3   116  SER116      0.2055
     75  C        -16.9040  -33.0150   -6.2020 C.2   116  SER116      0.2644
     76  O        -18.1200  -33.2150   -6.3290 O.2   116  SER116     -0.2714
     77  CB       -14.7060  -33.3290   -7.3840 C.3   116  SER116      0.2130
     78  OG       -14.0520  -32.4020   -6.5320 O.3   116  SER116     -0.2179
     79  N        -16.4120  -31.9210   -5.6380 N.am  117  THR117     -0.1936
     80  CA       -17.3160  -30.8940   -5.1470 C.3   117  THR117      0.2028
     81  C        -16.8470  -29.4860   -5.4870 C.2   117  THR117      0.2642
     82  O        -15.6930  -29.2610   -5.8670 O.2   117  THR117     -0.2714
     83  CB       -17.4660  -30.9650   -3.6160 C.3   117  THR117      0.1808
     84  OG1      -16.1830  -30.7710   -3.0090 O.3   117  THR117     -0.2208
     85  CG2      -18.0350  -32.3350   -3.1800 C.3   117  THR117      0.0379
     86  N        -17.7700  -28.5480   -5.3290 N.am  118  GLN118     -0.1963
     87  CA       -17.5080  -27.1450   -5.5300 C.3   118  GLN118      0.1733
     88  C        -17.9190  -26.4680   -4.2190 C.2   118  GLN118      0.2616
     89  O        -19.0390  -26.6890   -3.7290 O.2   118  GLN118     -0.2715
     90  CB       -18.3610  -26.5990   -6.6560 C.3   118  GLN118      0.0408
     91  CG       -18.2280  -25.0760   -6.8060 C.3   118  GLN118      0.0908
     92  CD       -16.8110  -24.6840   -7.1390 C.2   118  GLN118      0.2608
     93  OE1      -16.1700  -25.3140   -7.9840 O.2   118  GLN118     -0.2717
     94  NE2      -16.3090  -23.6460   -6.4820 N.am  118  GLN118     -0.0878
     95  N        -17.0060  -25.6710   -3.6530 N.am  119  GLY119     -0.1955
     96  CA       -17.2800  -24.9690   -2.4130 C.3   119  GLY119      0.1869
     97  C        -17.2360  -23.4600   -2.6290 C.2   119  GLY119      0.2309
     98  O        -17.3000  -23.0050   -3.7600 O.2   119  GLY119     -0.2863
@<TRIPOS>BOND
     1    53    54    2
     2    53    52    1
     3    52    51    1
     4    52    55    1
     5    55    56    1
     6    43    42    2
     7    56    58   ar
     8    56    57   ar
     9    61    58   ar
    10    61    63   ar
    11    42    41    1
    12    58    60   ar
    13    63    64   ar
    14    57    59   ar
    15    65    66    1
    16    60    59   ar
    17    60    62   ar
    18    71    70    1
    19    41    40    1
    20    41    44    1
    21    64    62   ar
    22    50    48   ar
    23    50    49   ar
    24    48    46   ar
    25    49    47   ar
    26    46    45   ar
    27    66    69    1
    28    66    67    1
    29    47    45   ar
    30    45    44    1
    31    69    70    1
    32    93    92    2
    33    70    72    1
    34    67    73   am
    35    67    68    2
    36    73    74    1
    37    77    74    1
    38    77    78    1
    39    92    91    1
    40    92    94   am
    41    91    90    1
    42    74    75    1
    43    90    87    1
    44    76    75    2
    45    75    79   am
    46    82    81    2
    47    79    80    1
    48    21    19   ar
    49    87    86    1
    50    87    88    1
    51    81    86   am
    52    81    80    1
    53    19    18    1
    54    19    20   ar
    55    18    15    1
    56    80    83    1
    57    35    36    1
    58    35    34    1
    59    36    37    2
    60    32    31    2
    61    37    39    1
    62    37    38    1
    63    14    15    1
    64    15    16    1
    65    88    89    2
    66    88    95   am
    67    33    34    1
    68    33    30    1
    69    98    97    2
    70    31    30    1
    71    95    96    1
    72    30    29    1
    73    83    85    1
    74    83    84    1
    75    16    22   am
    76    16    17    2
    77    97    96    1
    78    22    23    1
    79    27    26    1
    80     4     3    2
    81    26    23    1
    82    26    28    1
    83    23    24    1
    84    24    25    2
    85    12    11    2
    86     8     7    1
    87     8     9    2
    88     3     6   am
    89     3     2    1
    90     7     6    1
    91     7    10    1
    92     2     5    1
    93     2     1    1
    94    10    11    1
    95    11    13   am
