@<TRIPOS>MOLECULE
tmp/2bslB01.pdb
 112 106 0 0 0
SMALL
GASTEIGER

@<TRIPOS>ATOM
      1  N          2.0210   13.3950   14.9810 N.3    19  SER19      -0.1202
      2  CA         2.3450   12.5730   16.1280 C.3    19  SER19       0.2020
      3  C          1.6910   13.1590   17.3670 C.2    19  SER19       0.2619
      4  O          1.5570   14.4030   17.5230 O.2    19  SER19      -0.2717
      5  CB         3.8710   12.5270   16.3080 C.3    19  SER19       0.2103
      6  OG         4.2390   11.8590   17.5120 O.3    19  SER19      -0.2182
      7  N          1.2990   12.2730   18.2630 N.am   20  GLY20      -0.1956
      8  CA         0.4890   12.6270   19.4130 C.3    20  GLY20       0.1869
      9  C         -1.0050   12.4500   19.1630 C.2    20  GLY20       0.2309
     10  O         -1.7740   12.3080   20.1100 O.2    20  GLY20      -0.2863
     11  N          2.9550    7.9060   18.1030 N.3    43  LYS43      -0.1231
     12  CA         3.1760    8.7690   19.2620 C.3    43  LYS43       0.1693
     13  C          4.6880    8.8420   19.6250 C.2    43  LYS43       0.2592
     14  O          5.3590    7.8300   19.7330 O.2    43  LYS43      -0.2718
     15  CB         2.3810    8.2260   20.4550 C.3    43  LYS43       0.0285
     16  CG         2.5950    8.9800   21.7840 C.3    43  LYS43       0.0035
     17  CD         1.8860   10.3110   21.8200 C.3    43  LYS43       0.0206
     18  CE         2.3290   11.2100   22.9930 C.3    43  LYS43       0.1093
     19  NZ         2.0220   12.6700   22.7990 N.3    43  LYS43      -0.1314
     20  N          5.2200   10.0400   19.8060 N.am   44  SER44      -0.1952
     21  CA         6.5670   10.1810   20.3220 C.3    44  SER44       0.1924
     22  C          6.7390    9.2660   21.5090 C.2    44  SER44       0.2314
     23  O          5.8870    9.2420   22.3800 O.2    44  SER44      -0.2863
     24  CB         6.8170   11.6090   20.7750 C.3    44  SER44       0.2116
     25  OG         6.7350   12.5010   19.6830 O.3    44  SER44      -0.2180
     26  N         -3.2340   21.9700   24.8070 N.3    67  ASN67      -0.1240
     27  CA        -2.9290   20.7440   25.4700 C.3    67  ASN67       0.1653
     28  C         -1.6430   20.8030   26.2110 C.2    67  ASN67       0.2266
     29  O         -0.7040   21.4580   25.7720 O.2    67  ASN67      -0.2867
     30  CB        -2.8750   19.6060   24.4420 C.3    67  ASN67       0.1155
     31  CG        -1.4990   19.3890   23.8800 C.2    67  ASN67       0.2627
     32  OD1       -0.6530   18.7460   24.5180 O.2    67  ASN67      -0.2716
     33  ND2       -1.2530   19.9240   22.6680 N.am   67  ASN67      -0.0877
     34  N         -0.1160   17.4190   27.3390 N.3    69  MET69      -0.1230
     35  CA        -0.2770   15.9800   27.5600 C.3    69  MET69       0.1702
     36  C          0.8040   15.4250   28.4720 C.2    69  MET69       0.2593
     37  O          0.4650   14.6890   29.3680 O.2    69  MET69      -0.2718
     38  CB        -0.3620   15.1730   26.2540 C.3    69  MET69       0.0401
     39  CG        -1.4160   15.6420   25.3150 C.3    69  MET69       0.0596
     40  SD        -3.0980   15.3410   25.8400 S.3    69  MET69      -0.1393
     41  CE        -3.1690   13.5380   25.9210 C.3    69  MET69       0.0692
     42  N          2.0650   15.8260   28.2630 N.am   70  GLY70      -0.1942
     43  CA         3.2030   15.3900   29.0600 C.3    70  GLY70       0.2014
     44  C          3.8850   14.1070   28.5640 C.2    70  GLY70       0.2639
     45  O          4.4690   13.3170   29.3420 O.2    70  GLY70      -0.2714
     46  N          3.8010   13.8950   27.2620 N.am   71  LEU71      -0.1963
     47  CA         4.3630   12.7360   26.5980 C.3    71  LEU71       0.1713
     48  C          3.8450   11.4270   27.1790 C.2    71  LEU71       0.2458
     49  O          4.6420   10.5650   27.5770 O.2    71  LEU71      -0.2730
     50  CB         5.8830   12.7470   26.6870 C.3    71  LEU71       0.0310
     51  CG         6.6560   13.2500   25.5160 C.3    71  LEU71       0.0022
     52  CD1        8.1440   13.3730   25.9040 C.3    71  LEU71       0.0001
     53  CD2        6.4360   12.2990   24.2960 C.3    71  LEU71       0.0001
     54  N          2.5350   11.2480   27.2860 N.am   72  PRO72      -0.2727
     55  CA         2.0620    9.9330   27.6530 C.3    72  PRO72       0.1402
     56  C          2.4560    9.0470   26.4530 C.2    72  PRO72       0.2269
     57  O          2.3310    9.5070   25.2880 O.2    72  PRO72      -0.2865
     58  CB         0.5470   10.1200   27.8040 C.3    72  PRO72       0.0296
     59  CG         0.2490   11.2490   26.8970 C.3    72  PRO72       0.0237
     60  CD         1.4220   12.1790   27.1130 C.3    72  PRO72       0.0939
     61  N         12.0070   14.2420   17.7410 N.3   127  ASN127     -0.1240
     62  CA        11.2160   15.3600   18.1880 C.3   127  ASN127      0.1653
     63  C         12.0270   16.2360   19.1260 C.2   127  ASN127      0.2266
     64  O         12.2900   15.8690   20.2560 O.2   127  ASN127     -0.2867
     65  CB         9.9510   14.8430   18.8700 C.3   127  ASN127      0.1155
     66  CG         9.0720   15.9510   19.4590 C.2   127  ASN127      0.2627
     67  OD1        9.4280   17.1340   19.5100 O.2   127  ASN127     -0.2716
     68  ND2        7.9020   15.5590   19.8890 N.am  127  ASN127     -0.0877
     69  N          9.2310   19.1810   22.0170 N.3   130  CYS130     -0.1221
     70  CA         8.1160   18.9300   22.9380 C.3   130  CYS130      0.1794
     71  C          8.0590   20.0350   23.9700 C.2   130  CYS130      0.2443
     72  O          9.0310   20.1810   24.7440 O.2   130  CYS130     -0.2733
     73  CB         8.2210   17.5960   23.6980 C.3   130  CYS130      0.0970
     74  SG         6.6430   17.3360   24.5980 S.3   130  CYS130     -0.0800
     75  N          6.9530   20.8100   23.9760 N.am  131  PRO131     -0.2718
     76  CA         6.8200   21.9970   24.8540 C.3   131  PRO131      0.1535
     77  C          6.0650   21.7630   26.1680 C.2   131  PRO131      0.2598
     78  O          5.9220   22.7110   26.9570 O.2   131  PRO131     -0.2715
     79  CB         5.9830   22.9530   23.9850 C.3   131  PRO131      0.0310
     80  CG         4.9780   21.9760   23.2240 C.3   131  PRO131      0.0237
     81  CD         5.7610   20.6650   23.0910 C.3   131  PRO131      0.0939
     82  N          5.5730   20.5460   26.3700 N.am  132  ASN132     -0.1973
     83  CA         4.6160   20.2370   27.4460 C.3   132  ASN132      0.1688
     84  C          5.2140   19.4140   28.5960 C.2   132  ASN132      0.2292
     85  O          4.4760   19.0020   29.5180 O.2   132  ASN132     -0.2864
     86  CB         3.3620   19.5310   26.8800 C.3   132  ASN132      0.1181
     87  CG         2.6500   20.3580   25.7840 C.2   132  ASN132      0.2629
     88  OD1        2.4520   21.5640   25.9300 O.2   132  ASN132     -0.2716
     89  ND2        2.2610   19.7000   24.7100 N.am  132  ASN132     -0.0877
     90  N         11.4280   17.0950   14.1090 N.3   164  LYS164     -0.1245
     91  CA        10.1900   17.8250   14.2990 C.3   164  LYS164      0.1561
     92  C         10.5880   19.0420   15.1050 C.2   164  LYS164      0.2260
     93  O         11.0300   18.9230   16.2510 O.2   164  LYS164     -0.2867
     94  CB         9.1540   16.9790   15.0590 C.3   164  LYS164      0.0271
     95  CG         7.8780   17.7220   15.5490 C.3   164  LYS164      0.0035
     96  CD         6.8320   17.8410   14.4640 C.3   164  LYS164      0.0206
     97  CE         5.4690   18.1600   15.0310 C.3   164  LYS164      0.1093
     98  NZ         4.7040   17.0030   15.5810 N.3   164  LYS164     -0.1314
     99  N          5.7590   21.9460   15.2280 N.3   193  ASN193     -0.1225
    100  CA         5.1170   21.6210   16.5160 C.3   193  ASN193      0.1785
    101  C          4.2140   22.7680   16.9840 C.2   193  ASN193      0.2597
    102  O          4.1240   23.8260   16.3870 O.2   193  ASN193     -0.2718
    103  CB         6.1550   21.3370   17.6060 C.3   193  ASN193      0.1169
    104  CG         5.7350   20.1840   18.5140 C.2   193  ASN193      0.2627
    105  OD1        4.6150   20.1540   19.0080 O.2   193  ASN193     -0.2716
    106  ND2        6.6110   19.2180   18.6980 N.am  193  ASN193     -0.0877
    107  N          3.5200   22.5400   18.0550 N.am  194  SER194     -0.1952
    108  CA         2.6610   23.5300   18.6950 C.3   194  SER194      0.1924
    109  C          3.3150   24.8640   18.9440 C.2   194  SER194      0.2314
    110  O          4.5000   24.9560   19.2250 O.2   194  SER194     -0.2863
    111  CB         2.1390   22.9380   20.0190 C.3   194  SER194      0.2116
    112  OG         1.9630   21.5430   19.8310 O.3   194  SER194     -0.2180
@<TRIPOS>BOND
     1    90    91    1
     2    91    94    1
     3    91    92    1
     4    96    97    1
     5    96    95    1
     6     1     2    1
     7    97    98    1
     8    94    95    1
     9    92    93    2
    10    99   100    1
    11     2     5    1
    12     2     3    1
    13     5     6    1
    14   102   101    2
    15   100   101    1
    16   100   103    1
    17   101   107   am
    18     3     4    2
    19     3     7   am
    20   103   104    1
    21    61    62    1
    22   107   108    1
    23    11    12    1
    24    62    65    1
    25    62    63    1
    26     7     8    1
    27   104   106   am
    28   104   105    2
    29   108   109    1
    30   108   111    1
    31    65    66    1
    32   109   110    2
    33    63    64    2
    34     9     8    1
    35     9    10    2
    36    12    13    1
    37    12    15    1
    38    66    67    2
    39    66    68   am
    40    13    14    2
    41    13    20   am
    42    25    24    1
    43    20    21    1
    44   112   111    1
    45    21    24    1
    46    21    22    1
    47    15    16    1
    48    22    23    2
    49    16    17    1
    50    17    18    1
    51    69    70    1
    52    33    31   am
    53    19    18    1
    54    70    73    1
    55    70    71    1
    56    81    80    1
    57    81    75    1
    58    80    79    1
    59    73    74    1
    60    31    30    1
    61    31    32    2
    62    71    75   am
    63    71    72    2
    64    75    76    1
    65    79    76    1
    66    53    51    1
    67    30    27    1
    68    89    87   am
    69    26    27    1
    70    76    77    1
    71    57    56    2
    72    39    40    1
    73    39    38    1
    74    27    28    1
    75    51    52    1
    76    51    50    1
    77    29    28    2
    78    87    88    2
    79    87    86    1
    80    40    41    1
    81    77    82   am
    82    77    78    2
    83    38    35    1
    84    82    83    1
    85    56    55    1
    86    47    50    1
    87    47    48    1
    88    47    46    1
    89    86    83    1
    90    59    60    1
    91    59    58    1
    92    60    54    1
    93    48    54   am
    94    48    49    2
    95    46    44   am
    96    54    55    1
    97    34    35    1
    98    83    84    1
    99    35    36    1
   100    55    58    1
   101    42    36   am
   102    42    43    1
   103    36    37    2
   104    44    43    1
   105    44    45    2
   106    84    85    2
