@<TRIPOS>MOLECULE
tmp/2bsxA00.pdb
 144 138 0 0 0
SMALL
GASTEIGER

@<TRIPOS>ATOM
      1  N         30.5790    9.0410   -2.1420 N.3    23  GLY23      -0.1225
      2  CA        30.3370    7.6070   -2.2260 C.3    23  GLY23       0.1811
      3  C         31.5160    6.6670   -2.3490 C.2    23  GLY23       0.2280
      4  O         31.4680    5.5760   -1.8220 O.2    23  GLY23      -0.2866
      5  N         27.9320    2.7780   -2.3040 N.3    66  VAL66      -0.1245
      6  CA        26.7980    2.8280   -3.2190 C.3    66  VAL66       0.1561
      7  C         25.5200    2.3020   -2.5870 C.2    66  VAL66       0.2260
      8  O         25.4580    1.1100   -2.2770 O.2    66  VAL66      -0.2867
      9  CB        27.1190    2.0600   -4.5350 C.3    66  VAL66       0.0252
     10  CG1       25.8570    1.9340   -5.4090 C.3    66  VAL66       0.0019
     11  CG2       28.2540    2.7710   -5.2830 C.3    66  VAL66       0.0019
     12  N         26.5130   16.2280    0.5750 N.3    88  ARG88      -0.1245
     13  CA        26.9580   15.1400   -0.2390 C.3    88  ARG88       0.1563
     14  C         27.3540   15.7040   -1.5730 C.2    88  ARG88       0.2260
     15  O         26.6280   16.4780   -2.1660 O.2    88  ARG88      -0.2867
     16  CB        25.8310   14.1260   -0.4560 C.3    88  ARG88       0.0307
     17  CG        26.1610   13.1440   -1.5530 C.3    88  ARG88       0.0489
     18  CD        25.5010   11.8350   -1.3190 C.3    88  ARG88       0.2205
     19  NE        26.4090   10.6850   -1.5200 N.pl3  88  ARG88      -0.0865
     20  CZ        26.7660   10.1900   -2.7190 C.cat  88  ARG88       0.5346
     21  NH1       26.3180   10.7690   -3.8430 N.pl3  88  ARG88       0.1354
     22  NH2       27.5060    9.0740   -2.8090 N.pl3  88  ARG88       0.1354
     23  N         27.7490   12.0650   -7.8900 N.3    91  SER91      -0.1202
     24  CA        27.4940   11.9440   -9.2980 C.3    91  SER91       0.2020
     25  C         26.0060   11.6600   -9.4400 C.2    91  SER91       0.2619
     26  O         25.3270   11.3600   -8.4530 O.2    91  SER91      -0.2717
     27  CB        28.3830   10.8380   -9.8550 C.3    91  SER91       0.2103
     28  OG        27.9740    9.5520   -9.4040 O.3    91  SER91      -0.2182
     29  N         25.4670   11.8450  -10.6420 N.am   92  CYS92      -0.1955
     30  CA        24.0700   11.5340  -10.9040 C.3    92  CYS92       0.1843
     31  C         23.9330   11.3300  -12.4050 C.2    92  CYS92       0.2626
     32  O         24.8370   11.6720  -13.1440 O.2    92  CYS92      -0.2714
     33  CB        23.1720   12.6970  -10.5070 C.3    92  CYS92       0.0997
     34  SG        23.4400   14.1930  -11.4800 S.3    92  CYS92      -0.0797
     35  N         22.8030   10.7930  -12.8400 N.am   93  GLY93      -0.1954
     36  CA        22.4750   10.7960  -14.2770 C.3    93  GLY93       0.1869
     37  C         21.3820   11.8080  -14.5710 C.2    93  GLY93       0.2309
     38  O         20.6340   12.2150  -13.6720 O.2    93  GLY93      -0.2863
     39  N         16.7470    6.6600   -6.6270 N.3   157  SER157     -0.1217
     40  CA        16.3510    5.2420   -6.8650 C.3   157  SER157      0.1889
     41  C         17.3860    4.1900   -6.4610 C.2   157  SER157      0.2288
     42  O         18.5670    4.2870   -6.7310 O.2   157  SER157     -0.2866
     43  CB        15.8640    4.9740   -8.3250 C.3   157  SER157      0.2089
     44  OG        15.3470    3.6310   -8.4790 O.3   157  SER157     -0.2183
     45  N         17.0200    1.0440   -7.5100 N.3   159  MET159     -0.1230
     46  CA        17.2650    0.2060   -8.6860 C.3   159  MET159      0.1702
     47  C         18.0940    0.9790   -9.6300 C.2   159  MET159      0.2592
     48  O         17.6400    1.9880  -10.1410 O.2   159  MET159     -0.2718
     49  CB        15.9850   -0.0930   -9.3780 C.3   159  MET159      0.0401
     50  CG        16.0790   -1.2880  -10.2540 C.3   159  MET159      0.0596
     51  SD        14.4400   -1.5040  -10.8200 S.3   159  MET159     -0.1393
     52  CE        14.1130    0.1090  -11.5690 C.3   159  MET159      0.0692
     53  N         19.3200    0.5050   -9.8400 N.am  160  TYR160     -0.1976
     54  CA        20.2510    1.0400  -10.8030 C.3   160  TYR160      0.1639
     55  C         20.0310    0.3360  -12.1290 C.2   160  TYR160      0.2290
     56  O         20.0840    0.9690  -13.1730 O.2   160  TYR160     -0.2864
     57  CB        21.6840    0.7690  -10.3760 C.3   160  TYR160      0.0560
     58  CG        22.7300    1.3350  -11.3190 C.ar  160  TYR160     -0.0198
     59  CD1       23.2190    0.5920  -12.4200 C.ar  160  TYR160     -0.0009
     60  CD2       23.2270    2.6110  -11.1210 C.ar  160  TYR160     -0.0009
     61  CE1       24.1750    1.1440  -13.2790 C.ar  160  TYR160      0.0417
     62  CE2       24.1550    3.1430  -11.9440 C.ar  160  TYR160      0.0417
     63  CZ        24.6240    2.4210  -13.0250 C.ar  160  TYR160      0.1957
     64  OH        25.5620    3.0320  -13.8180 O.3   160  TYR160     -0.2866
     65  N         11.2490    6.1810  -13.6340 N.3   170  LEU170     -0.1245
     66  CA        12.0760    7.3170  -14.0370 C.3   170  LEU170      0.1561
     67  C         11.4870    8.2010  -15.1410 C.2   170  LEU170      0.2260
     68  O         11.6600    9.4430  -15.1110 O.2   170  LEU170     -0.2867
     69  CB        13.5260    6.9130  -14.3320 C.3   170  LEU170      0.0270
     70  CG        14.3320    6.2360  -13.2290 C.3   170  LEU170      0.0019
     71  CD1       15.7690    6.0280  -13.7060 C.3   170  LEU170      0.0001
     72  CD2       14.3150    7.1070  -11.9670 C.3   170  LEU170      0.0001
     73  N         18.9890   11.6890  -11.4920 N.3   181  VAL181     -0.1231
     74  CA        18.7840   10.4370  -10.7450 C.3   181  VAL181      0.1692
     75  C         20.0620    9.9980  -10.0360 C.2   181  VAL181      0.2592
     76  O         21.0850    9.9090  -10.6490 O.2   181  VAL181     -0.2718
     77  CB        18.2570    9.3020  -11.6760 C.3   181  VAL181      0.0266
     78  CG1       19.2440    8.9900  -12.7820 C.3   181  VAL181      0.0020
     79  CG2       17.9350    8.0490  -10.8870 C.3   181  VAL181      0.0020
     80  N         20.0030    9.7250   -8.7290 N.am  182  GLU182     -0.1966
     81  CA        21.1610    9.2040   -8.0120 C.3   182  GLU182      0.1733
     82  C         20.6580    8.1580   -7.0100 C.2   182  GLU182      0.2616
     83  O         19.5410    7.6900   -7.1640 O.2   182  GLU182     -0.2715
     84  CB        21.9240   10.3590   -7.3450 C.3   182  GLU182      0.0429
     85  CG        21.0320   11.3090   -6.5520 C.3   182  GLU182      0.1163
     86  CD        21.1320   11.0440   -5.0710 C.2   182  GLU182      0.3649
     87  OE1       20.0940   10.8730   -4.4300 O.co2 182  GLU182     -0.2457
     88  OE2       22.2570   10.9950   -4.5620 O.co2 182  GLU182     -0.2457
     89  N         21.4370    7.7770   -5.9970 N.am  183  MET183     -0.1963
     90  CA        20.9610    6.6720   -5.1380 C.3   183  MET183      0.1736
     91  C         20.7850    6.9230   -3.6460 C.2   183  MET183      0.2616
     92  O         19.9970    6.1970   -3.0160 O.2   183  MET183     -0.2715
     93  CB        21.7840    5.3840   -5.3720 C.3   183  MET183      0.0427
     94  CG        21.7630    4.8930   -6.8250 C.3   183  MET183      0.0599
     95  SD        22.8570    3.5300   -7.1110 S.3   183  MET183     -0.1393
     96  CE        22.0680    2.2100   -6.2180 C.3   183  MET183      0.0692
     97  N         21.4550    7.9590   -3.1090 N.am  184  GLU184     -0.1977
     98  CA        21.6160    8.1940   -1.6430 C.3   184  GLU184      0.1602
     99  C         21.0020    9.4670   -0.9870 C.2   184  GLU184      0.2287
    100  O         21.0190    9.5990    0.2320 O.2   184  GLU184     -0.2864
    101  CB        23.1200    8.2310   -1.2880 C.3   184  GLU184      0.0415
    102  CG        23.9320    6.9590   -1.5140 C.3   184  GLU184      0.1163
    103  CD        24.5280    6.8710   -2.9350 C.2   184  GLU184      0.3649
    104  OE1       24.2530    7.7740   -3.7510 O.co2 184  GLU184     -0.2457
    105  OE2       25.3080    5.9290   -3.2240 O.co2 184  GLU184     -0.2457
    106  N         26.9590   12.3560  -14.7240 N.3   206  ASP206     -0.1225
    107  CA        27.7460   11.3050  -15.3570 C.3   206  ASP206      0.1805
    108  C         27.1640   10.9500  -16.7210 C.2   206  ASP206      0.2598
    109  O         27.8890   10.9390  -17.7090 O.2   206  ASP206     -0.2718
    110  CB        27.7900   10.0580  -14.4890 C.3   206  ASP206      0.1424
    111  CG        28.2290   10.3410  -13.0820 C.2   206  ASP206      0.3668
    112  OD1       28.9900   11.3020  -12.8520 O.co2 206  ASP206     -0.2456
    113  OD2       27.8040    9.5890  -12.1830 O.co2 206  ASP206     -0.2456
    114  N         25.8700   10.6430  -16.7660 N.am  207  GLY207     -0.1942
    115  CA        25.1930   10.2420  -18.0020 C.3   207  GLY207      0.2014
    116  C         23.6830   10.4010  -17.9290 C.2   207  GLY207      0.2639
    117  O         23.1770   11.2430  -17.1900 O.2   207  GLY207     -0.2714
    118  N         22.9640    9.6020  -18.7160 N.am  208  CYS208     -0.1954
    119  CA        21.4940    9.6090  -18.7490 C.3   208  CYS208      0.1828
    120  C         20.9900    8.1590  -18.7890 C.2   208  CYS208      0.2467
    121  O         21.2430    7.4460  -19.7560 O.2   208  CYS208     -0.2730
    122  CB        20.9680   10.4050  -19.9650 C.3   208  CYS208      0.0996
    123  SG        19.2140   10.8960  -19.9090 S.3   208  CYS208     -0.0797
    124  N         20.2590    7.7200  -17.7450 N.am  209  PRO209     -0.2726
    125  CA        19.8020    6.3350  -17.7040 C.3   209  PRO209      0.1402
    126  C         18.9670    5.9160  -18.9210 C.2   209  PRO209      0.2269
    127  O         18.8450    4.7250  -19.1700 O.2   209  PRO209     -0.2865
    128  CB        18.9500    6.2870  -16.4390 C.3   209  PRO209      0.0296
    129  CG        18.5890    7.7080  -16.1680 C.3   209  PRO209      0.0237
    130  CD        19.7900    8.4720  -16.5730 C.3   209  PRO209      0.0939
    131  N         21.3950    4.6110  -22.2090 N.3   212  TRP212     -0.1241
    132  CA        22.4350    3.6390  -21.8540 C.3   212  TRP212      0.1605
    133  C         22.6750    2.6860  -23.0090 C.2   212  TRP212      0.2264
    134  O         23.7970    2.2850  -23.2750 O.2   212  TRP212     -0.2867
    135  CB        22.0450    2.8470  -20.5930 C.3   212  TRP212      0.0550
    136  CG        22.2850    3.5550  -19.2900 C.ar  212  TRP212      0.0003
    137  CD1       22.7890    4.8080  -19.1220 C.ar  212  TRP212      0.0946
    138  CD2       21.9870    3.0610  -17.9700 C.ar  212  TRP212      0.0152
    139  NE1       22.8510    5.1210  -17.7830 N.ar  212  TRP212     -0.2442
    140  CE2       22.3670    4.0670  -17.0530 C.ar  212  TRP212      0.0810
    141  CE3       21.4650    1.8560  -17.4760 C.ar  212  TRP212      0.0012
    142  CZ2       22.2190    3.9210  -15.6640 C.ar  212  TRP212      0.0191
    143  CZ3       21.3160    1.7000  -16.0740 C.ar  212  TRP212      0.0001
    144  CH2       21.6890    2.7350  -15.1940 C.ar  212  TRP212      0.0015
@<TRIPOS>BOND
     1   134   133    2
     2   133   132    1
     3   131   132    1
     4   132   135    1
     5   135   136    1
     6   122   123    1
     7   122   119    1
     8   121   120    2
     9   136   137   ar
    10   136   138   ar
    11   127   126    2
    12   137   139   ar
    13   126   125    1
    14   120   119    1
    15   120   124   am
    16   119   118    1
    17   118   116   am
    18   115   116    1
    19   115   114    1
    20   138   141   ar
    21   138   140   ar
    22   116   117    2
    23   139   140   ar
    24   124   125    1
    25   124   130    1
    26   109   108    2
    27   125   128    1
    28   141   143   ar
    29   140   142   ar
    30   114   108   am
    31   108   107    1
    32   130   129    1
    33   128   129    1
    34   143   144   ar
    35   142   144   ar
    36   107   106    1
    37   107   110    1
    38    67    68    2
    39    67    66    1
    40    37    36    1
    41    37    38    2
    42   110   111    1
    43    69    66    1
    44    69    70    1
    45    36    35    1
    46    66    65    1
    47    64    63    1
    48    71    70    1
    49    61    63   ar
    50    61    59   ar
    51    70    72    1
    52    56    55    2
    53    32    31    2
    54   111   112   ar
    55   111   113   ar
    56    63    62   ar
    57    35    31   am
    58    78    77    1
    59    59    58   ar
    60    31    30    1
    61    55    54    1
    62    62    60   ar
    63    77    79    1
    64    77    74    1
    65    52    51    1
    66    73    74    1
    67    34    33    1
    68    58    60   ar
    69    58    57    1
    70    30    29    1
    71    30    33    1
    72    51    50    1
    73    54    57    1
    74    54    53    1
    75    74    75    1
    76    76    75    2
    77    29    25   am
    78    50    49    1
    79    48    47    2
    80    75    80   am
    81    27    28    1
    82    27    24    1
    83    53    47   am
    84    47    46    1
    85    25    24    1
    86    25    26    2
    87    49    46    1
    88    24    23    1
    89    80    81    1
    90    46    45    1
    91    44    43    1
    92    43    40    1
    93    81    84    1
    94    81    82    1
    95    84    85    1
    96    83    82    2
    97    95    94    1
    98    95    96    1
    99    82    89   am
   100    40    39    1
   101    40    41    1
   102    94    93    1
   103    42    41    2
   104    85    86    1
   105    89    90    1
   106    10     9    1
   107    93    90    1
   108    11     9    1
   109    90    91    1
   110    86    88   ar
   111    86    87   ar
   112     9     6    1
   113    21    20    1
   114   104   103   ar
   115    91    97   am
   116    91    92    2
   117   105   103   ar
   118     6     7    1
   119     6     5    1
   120    97    98    1
   121   103   102    1
   122    22    20    1
   123    20    19    2
   124     7     8    2
   125     3     2    1
   126     3     4    2
   127     2     1    1
   128    15    14    2
   129    98   101    1
   130    98    99    1
   131    14    13    1
   132    17    18    1
   133    17    16    1
   134    19    18    1
   135   102   101    1
   136    99   100    2
   137    16    13    1
   138    13    12    1
