@<TRIPOS>MOLECULE
tmp/2bt0B00.pdb
 160 147 0 0 0
SMALL
GASTEIGER

@<TRIPOS>ATOM
      1  N          3.4760  -33.1890  -40.6690 N.3    33  LEU33      -0.1245
      2  CA         4.0910  -32.6390  -41.8670 C.3    33  LEU33       0.1561
      3  C          5.3910  -33.3760  -42.2220 C.2    33  LEU33       0.2260
      4  O          5.6870  -33.6230  -43.4010 O.2    33  LEU33      -0.2867
      5  CB         4.3460  -31.1450  -41.7000 C.3    33  LEU33       0.0270
      6  CG         3.0890  -30.2920  -41.5000 C.3    33  LEU33       0.0019
      7  CD1        3.4720  -28.8450  -41.2620 C.3    33  LEU33       0.0001
      8  CD2        2.1770  -30.3970  -42.6810 C.3    33  LEU33       0.0001
      9  N          4.4180  -36.6510  -43.8190 N.3    36  ASN36      -0.1225
     10  CA         4.1080  -36.3970  -45.2370 C.3    36  ASN36       0.1785
     11  C          5.3660  -36.3060  -46.0930 C.2    36  ASN36       0.2597
     12  O          5.4330  -36.9070  -47.1370 O.2    36  ASN36      -0.2718
     13  CB         3.2790  -35.1280  -45.3920 C.3    36  ASN36       0.1169
     14  CG         1.8330  -35.3430  -44.9880 C.2    36  ASN36       0.2627
     15  OD1        1.4280  -36.4620  -44.6730 O.2    36  ASN36      -0.2716
     16  ND2        1.0500  -34.2780  -45.0010 N.am   36  ASN36      -0.0877
     17  N          6.3640  -35.5820  -45.6040 N.am   37  SER37      -0.1952
     18  CA         7.6560  -35.4490  -46.2820 C.3    37  SER37       0.1924
     19  C          8.3480  -36.8010  -46.4780 C.2    37  SER37       0.2314
     20  O          8.8630  -37.0900  -47.5640 O.2    37  SER37      -0.2863
     21  CB         8.5730  -34.5440  -45.4700 C.3    37  SER37       0.2116
     22  OG         8.1910  -33.1950  -45.5730 O.3    37  SER37      -0.2180
     23  N          6.8720  -39.8140  -46.5580 N.3    39  ASP39      -0.1225
     24  CA         6.1070  -40.5210  -47.5900 C.3    39  ASP39       0.1805
     25  C          6.4860  -40.0750  -49.0080 C.2    39  ASP39       0.2597
     26  O          6.5830  -40.9070  -49.9070 O.2    39  ASP39      -0.2718
     27  CB         4.5950  -40.3050  -47.4090 C.3    39  ASP39       0.1424
     28  CG         4.0380  -40.9750  -46.1780 C.2    39  ASP39       0.3668
     29  OD1        4.7520  -41.7560  -45.5160 O.co2  39  ASP39      -0.2456
     30  OD2        2.8640  -40.7830  -45.7870 O.co2  39  ASP39      -0.2456
     31  N          6.6600  -38.7640  -49.2160 N.am   40  ALA40      -0.1979
     32  CA         7.0490  -38.2450  -50.5290 C.3    40  ALA40       0.1597
     33  C          8.4770  -38.6790  -50.8700 C.2    40  ALA40       0.2287
     34  O          8.8160  -38.9510  -52.0240 O.2    40  ALA40      -0.2864
     35  CB         6.9290  -36.7310  -50.5660 C.3    40  ALA40       0.0319
     36  N          8.4940  -42.3300  -51.9350 N.3    43  LYS43      -0.1245
     37  CA         7.9890  -42.4330  -53.3100 C.3    43  LYS43       0.1561
     38  C          9.0670  -42.1240  -54.3570 C.2    43  LYS43       0.2260
     39  O          9.1760  -42.8370  -55.3350 O.2    43  LYS43      -0.2867
     40  CB         6.8180  -41.4770  -53.5260 C.3    43  LYS43       0.0271
     41  CG         5.4700  -42.0380  -53.1950 C.3    43  LYS43       0.0035
     42  CD         4.3890  -41.4000  -54.0920 C.3    43  LYS43       0.0206
     43  CE         4.3960  -42.0120  -55.5250 C.3    43  LYS43       0.1093
     44  NZ         3.3020  -41.4400  -56.4060 N.3    43  LYS43      -0.1314
     45  N          8.7720  -26.2360  -43.5950 N.3    76  ILE76      -0.1245
     46  CA         9.2220  -27.6280  -43.7210 C.3    76  ILE76       0.1561
     47  C          9.4820  -27.8680  -45.1940 C.2    76  ILE76       0.2260
     48  O          8.5750  -27.7420  -45.9970 O.2    76  ILE76      -0.2867
     49  CB         8.1600  -28.6220  -43.1950 C.3    76  ILE76       0.0252
     50  CG1        7.9200  -28.3900  -41.6990 C.3    76  ILE76       0.0019
     51  CG2        8.5970  -30.1000  -43.4380 C.3    76  ILE76       0.0019
     52  CD1        6.8510  -27.4020  -41.4020 C.3    76  ILE76       0.0001
     53  N         11.2180  -30.5550  -48.1740 N.3    78  ASP78      -0.1239
     54  CA        11.7420  -31.8830  -48.4870 C.3    78  ASP78       0.1674
     55  C         12.0900  -31.9910  -49.9640 C.2    78  ASP78       0.2266
     56  O         11.6360  -31.1790  -50.7830 O.2    78  ASP78      -0.2867
     57  CB        10.7640  -32.9860  -48.0520 C.3    78  ASP78       0.1410
     58  CG         9.4430  -32.9450  -48.8010 C.2    78  ASP78       0.3668
     59  OD1        9.4300  -33.1880  -50.0320 O.co2  78  ASP78      -0.2456
     60  OD2        8.3720  -32.6980  -48.2200 O.co2  78  ASP78      -0.2456
     61  N          9.0290  -36.5430  -53.8750 N.3    81  ILE81      -0.1231
     62  CA         8.6200  -36.6460  -55.2810 C.3    81  ILE81       0.1692
     63  C          7.9110  -35.3820  -55.7900 C.2    81  ILE81       0.2593
     64  O          7.8330  -35.1320  -56.9940 O.2    81  ILE81      -0.2718
     65  CB         7.7790  -37.9400  -55.5290 C.3    81  ILE81       0.0266
     66  CG1        7.6460  -38.2250  -57.0330 C.3    81  ILE81       0.0019
     67  CG2        6.4030  -37.8640  -54.8830 C.3    81  ILE81       0.0020
     68  CD1        7.3730  -39.6640  -57.3620 C.3    81  ILE81       0.0001
     69  N          7.3980  -34.5800  -54.8690 N.am   82  GLY82      -0.1942
     70  CA         6.7000  -33.3620  -55.2260 C.3    82  GLY82       0.2014
     71  C          5.3060  -33.6470  -55.7340 C.2    82  GLY82       0.2638
     72  O          4.8370  -34.7830  -55.7160 O.2    82  GLY82      -0.2714
     73  N          4.6450  -32.5940  -56.1970 N.am   83  MET83      -0.1976
     74  CA         3.2750  -32.6780  -56.6860 C.3    83  MET83       0.1605
     75  C          3.1040  -31.8890  -57.9850 C.2    83  MET83       0.2287
     76  O          3.5830  -30.7700  -58.0990 O.2    83  MET83      -0.2864
     77  CB         2.3160  -32.1070  -55.6300 C.3    83  MET83       0.0413
     78  CG         2.0850  -33.0210  -54.4420 C.3    83  MET83       0.0598
     79  SD         0.9290  -32.2940  -53.2280 S.3    83  MET83      -0.1393
     80  CE         2.0180  -31.2280  -52.3280 C.3    83  MET83       0.0692
     81  N         -2.1200  -32.8450  -58.7770 N.3    87  ASP87      -0.1239
     82  CA        -1.8490  -33.4740  -57.4800 C.3    87  ASP87       0.1674
     83  C         -2.1330  -32.4980  -56.3640 C.2    87  ASP87       0.2266
     84  O         -2.7400  -32.8740  -55.3920 O.2    87  ASP87      -0.2867
     85  CB        -0.3870  -33.9260  -57.3090 C.3    87  ASP87       0.1410
     86  CG        -0.0140  -35.1290  -58.1590 C.2    87  ASP87       0.3668
     87  OD1       -0.9200  -35.8540  -58.6390 O.co2  87  ASP87      -0.2456
     88  OD2        1.2030  -35.4180  -58.3780 O.co2  87  ASP87      -0.2456
     89  N         -5.1000  -33.3980  -53.8870 N.3    91  ASN91      -0.1225
     90  CA        -4.5530  -33.8750  -52.5990 C.3    91  ASN91       0.1785
     91  C         -4.8410  -32.9520  -51.4450 C.2    91  ASN91       0.2597
     92  O         -5.0680  -33.4010  -50.3300 O.2    91  ASN91      -0.2718
     93  CB        -3.0290  -34.0700  -52.6530 C.3    91  ASN91       0.1169
     94  CG        -2.6170  -35.2810  -53.4680 C.2    91  ASN91       0.2627
     95  OD1       -3.4530  -36.0860  -53.8990 O.2    91  ASN91      -0.2716
     96  ND2       -1.3160  -35.4170  -53.6880 N.am   91  ASN91      -0.0877
     97  N         -4.7970  -31.6540  -51.7060 N.am   92  LEU92      -0.1980
     98  CA        -5.0380  -30.6560  -50.6590 C.3    92  LEU92       0.1596
     99  C         -6.4290  -30.0280  -50.7150 C.2    92  LEU92       0.2287
    100  O         -6.8720  -29.4230  -49.7460 O.2    92  LEU92      -0.2864
    101  CB        -4.0050  -29.5440  -50.7410 C.3    92  LEU92       0.0297
    102  CG        -2.5350  -29.9370  -50.7460 C.3    92  LEU92       0.0022
    103  CD1       -1.6880  -28.7010  -50.6380 C.3    92  LEU92       0.0001
    104  CD2       -2.1960  -30.9320  -49.6450 C.3    92  LEU92       0.0001
    105  N         -8.0350  -39.8410  -51.5090 N.3    97  LYS97      -0.1245
    106  CA        -7.9170  -41.1720  -50.9020 C.3    97  LYS97       0.1561
    107  C         -7.8390  -41.1120  -49.3680 C.2    97  LYS97       0.2260
    108  O         -7.5050  -42.0970  -48.7170 O.2    97  LYS97      -0.2867
    109  CB        -6.7360  -41.9790  -51.5010 C.3    97  LYS97       0.0271
    110  CG        -5.5210  -41.1920  -51.9670 C.3    97  LYS97       0.0035
    111  CD        -4.3660  -42.1220  -52.3680 C.3    97  LYS97       0.0206
    112  CE        -3.4950  -42.4930  -51.1580 C.3    97  LYS97       0.1093
    113  NZ        -2.7170  -43.7780  -51.3270 N.3    97  LYS97      -0.1314
    114  N         -5.0580  -40.0740  -42.8440 N.3   120  GLY120     -0.1210
    115  CA        -4.5420  -39.5410  -44.0950 C.3   120  GLY120      0.1956
    116  C         -4.8170  -38.0680  -44.3240 C.2   120  GLY120      0.2612
    117  O         -4.8310  -37.6270  -45.4510 O.2   120  GLY120     -0.2717
    118  N         -5.0410  -37.3150  -43.2520 N.am  121  VAL121     -0.1965
    119  CA        -5.3590  -35.8880  -43.3440 C.3   121  VAL121      0.1727
    120  C         -4.4480  -35.0270  -42.4830 C.2   121  VAL121      0.2617
    121  O         -4.7710  -33.8850  -42.1920 O.2   121  VAL121     -0.2715
    122  CB        -6.8440  -35.6050  -43.0120 C.3   121  VAL121      0.0290
    123  CG1       -7.7080  -36.0800  -44.1530 C.3   121  VAL121      0.0023
    124  CG2       -7.2710  -36.2650  -41.7120 C.3   121  VAL121      0.0023
    125  N         -3.2770  -35.5490  -42.1400 N.am  122  GLY122     -0.1940
    126  CA        -2.3560  -34.8680  -41.2470 C.3   122  GLY122      0.2014
    127  C         -1.9740  -33.4590  -41.6470 C.2   122  GLY122      0.2638
    128  O         -1.6980  -32.6320  -40.7860 O.2   122  GLY122     -0.2714
    129  N         -1.9000  -33.2070  -42.9550 N.am  123  PHE123     -0.1973
    130  CA        -1.5410  -31.9010  -43.4920 C.3   123  PHE123      0.1639
    131  C         -2.3520  -30.7950  -42.8370 C.2   123  PHE123      0.2290
    132  O         -1.8110  -29.7480  -42.5200 O.2   123  PHE123     -0.2864
    133  CB        -1.7310  -31.8440  -45.0340 C.3   123  PHE123      0.0560
    134  CG        -1.7380  -30.4220  -45.5880 C.ar  123  PHE123     -0.0200
    135  CD1       -0.5560  -29.6990  -45.6910 C.ar  123  PHE123     -0.0042
    136  CD2       -2.9290  -29.7910  -45.9310 C.ar  123  PHE123     -0.0042
    137  CE1       -0.5600  -28.3850  -46.1630 C.ar  123  PHE123     -0.0003
    138  CE2       -2.9330  -28.4860  -46.3980 C.ar  123  PHE123     -0.0003
    139  CZ        -1.7580  -27.7920  -46.5140 C.ar  123  PHE123     -0.0000
    140  N          2.0530  -23.7500  -49.8610 N.3   135  VAL135     -0.1245
    141  CA         2.7610  -24.9540  -50.2950 C.3   135  VAL135      0.1561
    142  C          3.3720  -24.7510  -51.6810 C.2   135  VAL135      0.2260
    143  O          2.6820  -24.5410  -52.6790 O.2   135  VAL135     -0.2867
    144  CB         1.8820  -26.1970  -50.2870 C.3   135  VAL135      0.0252
    145  CG1        2.7300  -27.4400  -50.5750 C.3   135  VAL135      0.0019
    146  CG2        1.2150  -26.3620  -48.9490 C.3   135  VAL135      0.0019
    147  N          8.7850  -30.4780  -51.9860 N.3   169  THR169     -0.1218
    148  CA         7.6790  -29.7170  -51.4200 C.3   169  THR169      0.1862
    149  C          8.1480  -28.9110  -50.2200 C.2   169  THR169      0.2287
    150  O          8.9280  -29.3820  -49.3920 O.2   169  THR169     -0.2866
    151  CB         6.5340  -30.6740  -51.0500 C.3   169  THR169      0.1770
    152  OG1        5.9790  -31.2020  -52.2540 O.3   169  THR169     -0.2211
    153  CG2        5.3580  -29.9340  -50.3790 C.3   169  THR169      0.0375
    154  N          6.4820  -26.5410  -47.3170 N.3   171  VAL171     -0.1245
    155  CA         5.3230  -26.0560  -46.5740 C.3   171  VAL171      0.1561
    156  C          5.7340  -24.9020  -45.6530 C.2   171  VAL171      0.2260
    157  O          6.5080  -25.0960  -44.7040 O.2   171  VAL171     -0.2867
    158  CB         4.6880  -27.1780  -45.7160 C.3   171  VAL171      0.0252
    159  CG1        3.4260  -26.6740  -45.0490 C.3   171  VAL171      0.0019
    160  CG2        4.3700  -28.3730  -46.5540 C.3   171  VAL171      0.0019
@<TRIPOS>BOND
     1    81    82    1
     2    87    86   ar
     3    88    86   ar
     4    86    85    1
     5    76    75    2
     6    75    74    1
     7    82    85    1
     8    82    83    1
     9    68    66    1
    10    66    65    1
    11    64    63    2
    12    74    73    1
    13    74    77    1
    14    44    43    1
    15    83    84    2
    16    73    71   am
    17    63    62    1
    18    63    69   am
    19    71    72    2
    20    71    70    1
    21    77    78    1
    22    65    62    1
    23    65    67    1
    24    43    42    1
    25    39    38    2
    26    62    61    1
    27    70    69    1
    28    78    79    1
    29    38    37    1
    30    42    41    1
    31    95    94    2
    32    89    90    1
    33    96    94   am
    34    40    37    1
    35    40    41    1
    36    94    93    1
    37    37    36    1
    38    79    80    1
    39   143   142    2
    40    93    90    1
    41    90    91    1
    42   111   110    1
    43   111   112    1
    44   152   151    1
    45    34    33    2
    46   147   148    1
    47   110   109    1
    48    97    91   am
    49    97    98    1
    50   142   141    1
    51   105   106    1
    52   109   106    1
    53    91    92    2
    54   148   151    1
    55   148   149    1
    56   113   112    1
    57   151   153    1
    58   106   107    1
    59    33    32    1
    60    56    55    2
    61   102   101    1
    62   102   103    1
    63   102   104    1
    64   101    98    1
    65    99    98    1
    66    99   100    2
    67   145   144    1
    68    35    32    1
    69    32    31    1
    70   141   144    1
    71   141   140    1
    72   144   146    1
    73   149   150    2
    74    59    58   ar
    75    55    54    1
    76    26    25    2
    77   107   108    2
    78    31    25   am
    79    25    24    1
    80    58    60   ar
    81    58    57    1
    82    54    53    1
    83    54    57    1
    84    24    27    1
    85    24    23    1
    86    20    19    2
    87    27    28    1
    88   154   155    1
    89    12    11    2
    90   155   158    1
    91   155   156    1
    92   160   158    1
    93   139   138   ar
    94   139   137   ar
    95    19    18    1
    96   138   136   ar
    97    18    17    1
    98    18    21    1
    99    28    30   ar
   100    28    29   ar
   101   137   135   ar
   102    11    17   am
   103    11    10    1
   104    48    47    2
   105   136   134   ar
   106   158   159    1
   107   135   134   ar
   108   156   157    2
   109   134   133    1
   110    22    21    1
   111   117   116    2
   112    13    10    1
   113    13    14    1
   114    10     9    1
   115    47    46    1
   116   133   130    1
   117    16    14   am
   118    14    15    2
   119   116   115    1
   120   116   118   am
   121   123   122    1
   122   115   114    1
   123    46    45    1
   124    46    49    1
   125   130   129    1
   126   130   131    1
   127    51    49    1
   128     4     3    2
   129   119   118    1
   130   119   122    1
   131   119   120    1
   132    49    50    1
   133   122   124    1
   134   129   127   am
   135   131   132    2
   136     8     6    1
   137   120   121    2
   138   120   125   am
   139     3     2    1
   140   125   126    1
   141     2     5    1
   142     2     1    1
   143     5     6    1
   144    50    52    1
   145   127   126    1
   146   127   128    2
   147     6     7    1
