@<TRIPOS>MOLECULE
tmp/2bt1A00.pdb
 155 148 0 0 0
SMALL
GASTEIGER

@<TRIPOS>ATOM
      1  N         56.1400   18.9780   32.7540 N.3    58  LEU58      -0.1245
      2  CA        56.5590   17.5910   32.4960 C.3    58  LEU58       0.1561
      3  C         58.0810   17.3800   32.5630 C.2    58  LEU58       0.2260
      4  O         58.8580   18.0580   31.9020 O.2    58  LEU58      -0.2867
      5  CB        56.0260   17.1280   31.1350 C.3    58  LEU58       0.0270
      6  CG        56.3470   15.6570   30.7990 C.3    58  LEU58       0.0019
      7  CD1       55.5050   14.6840   31.6430 C.3    58  LEU58       0.0001
      8  CD2       56.1890   15.3530   29.3130 C.3    58  LEU58       0.0001
      9  N         64.5500   17.5300   28.9030 N.3    69  HIS69      -0.1241
     10  CA        63.8800   18.8000   28.7390 C.3    69  HIS69       0.1621
     11  C         62.7960   18.9030   29.8010 C.2    69  HIS69       0.2264
     12  O         62.2070   17.8560   30.1540 O.2    69  HIS69      -0.2867
     13  CB        63.2380   18.8310   27.3820 C.3    69  HIS69       0.0745
     14  CG        62.3810   20.0290   27.1410 C.ar   69  HIS69       0.0817
     15  ND1       62.8980   21.3140   27.0150 N.ar   69  HIS69      -0.2268
     16  CD2       61.0490   20.1330   26.9280 C.ar   69  HIS69       0.1154
     17  CE1       61.9130   22.1570   26.7400 C.ar   69  HIS69       0.1986
     18  NE2       60.7770   21.4680   26.6990 N.ar   69  HIS69      -0.2212
     19  N         59.1620   20.3880   30.2350 N.3    71  GLY71      -0.1210
     20  CA        58.1600   20.8480   29.3020 C.3    71  GLY71       0.1956
     21  C         57.0950   21.6440   30.0160 C.2    71  GLY71       0.2612
     22  O         56.5920   21.2060   31.0930 O.2    71  GLY71      -0.2717
     23  N         56.7240   22.7810   29.4320 N.am   72  ILE72      -0.1965
     24  CA        55.5610   23.5000   29.8860 C.3    72  ILE72       0.1727
     25  C         54.4680   23.1530   28.8890 C.2    72  ILE72       0.2616
     26  O         54.5780   23.4230   27.7100 O.2    72  ILE72      -0.2715
     27  CB        55.8650   24.9610   29.9110 C.3    72  ILE72       0.0290
     28  CG1       57.0580   25.2540   30.8660 C.3    72  ILE72       0.0022
     29  CG2       54.6580   25.7690   30.1720 C.3    72  ILE72       0.0023
     30  CD1       56.9640   24.7010   32.2720 C.3    72  ILE72       0.0001
     31  N         53.4360   22.4810   29.3600 N.am   73  ILE73      -0.1963
     32  CA        52.3240   22.0430   28.5400 C.3    73  ILE73       0.1727
     33  C         51.2870   23.1500   28.4980 C.2    73  ILE73       0.2616
     34  O         50.8180   23.6100   29.5090 O.2    73  ILE73      -0.2715
     35  CB        51.6230   20.8100   29.1520 C.3    73  ILE73       0.0290
     36  CG1       52.6440   19.8360   29.7440 C.3    73  ILE73       0.0022
     37  CG2       50.7050   20.1210   28.1200 C.3    73  ILE73       0.0023
     38  CD1       53.7130   19.4060   28.7440 C.3    73  ILE73       0.0001
     39  N         50.9710   23.6030   27.2980 N.am   74  ASP74      -0.1971
     40  CA        49.8520   24.4650   27.0430 C.3    74  ASP74       0.1709
     41  C         48.5770   23.9780   27.7240 C.2    74  ASP74       0.2293
     42  O         48.1980   22.7940   27.6030 O.2    74  ASP74      -0.2864
     43  CB        49.6260   24.4320   25.5540 C.3    74  ASP74       0.1436
     44  CG        49.2160   25.7700   25.0190 C.2    74  ASP74       0.3671
     45  OD1       47.9750   25.9770   24.9950 O.co2  74  ASP74      -0.2456
     46  OD2       50.1220   26.6050   24.6900 O.co2  74  ASP74      -0.2456
     47  N         46.3490   21.8130   25.5370 N.3    77  TYR77      -0.1241
     48  CA        46.8410   20.7200   24.7290 C.3    77  TYR77       0.1605
     49  C         46.0960   19.4210   25.1100 C.2    77  TYR77       0.2264
     50  O         45.8530   19.1560   26.3030 O.2    77  TYR77      -0.2867
     51  CB        48.3260   20.6090   24.9760 C.3    77  TYR77       0.0534
     52  CG        48.9180   19.4620   24.2620 C.ar   77  TYR77      -0.0201
     53  CD1       49.0400   19.4790   22.8620 C.ar   77  TYR77      -0.0009
     54  CD2       49.3700   18.3600   24.9620 C.ar   77  TYR77      -0.0009
     55  CE1       49.5990   18.4120   22.1890 C.ar   77  TYR77       0.0417
     56  CE2       49.9460   17.3220   24.3130 C.ar   77  TYR77       0.0417
     57  CZ        50.0470   17.3490   22.9210 C.ar   77  TYR77       0.1957
     58  OH        50.5780   16.2790   22.2800 O.3    77  TYR77      -0.2866
     59  N         48.9500   13.3740   23.2330 N.3    80  GLU80      -0.1231
     60  CA        49.8590   12.5230   23.9800 C.3    80  GLU80       0.1699
     61  C         51.0450   13.3810   24.4410 C.2    80  GLU80       0.2592
     62  O         51.5780   14.1600   23.6220 O.2    80  GLU80      -0.2718
     63  CB        50.4340   11.4510   23.0430 C.3    80  GLU80       0.0402
     64  CG        50.9370   10.2230   23.7860 C.3    80  GLU80       0.1161
     65  CD        51.5040    9.1050   22.9080 C.2    80  GLU80       0.3649
     66  OE1       51.3480    9.1590   21.6530 O.co2  80  GLU80      -0.2457
     67  OE2       52.1040    8.1630   23.5080 O.co2  80  GLU80      -0.2457
     68  N         51.4720   13.2200   25.7100 N.am   81  LEU81      -0.1966
     69  CA        52.6550   13.8980   26.2040 C.3    81  LEU81       0.1728
     70  C         53.9450   13.0930   25.9020 C.2    81  LEU81       0.2616
     71  O         53.9460   11.8670   25.9860 O.2    81  LEU81      -0.2715
     72  CB        52.4970   14.2420   27.7020 C.3    81  LEU81       0.0311
     73  CG        51.2280   14.9820   28.2090 C.3    81  LEU81       0.0022
     74  CD1       51.0370   14.8960   29.7080 C.3    81  LEU81       0.0001
     75  CD2       51.2140   16.4090   27.8550 C.3    81  LEU81       0.0001
     76  N         55.0230   13.7730   25.5380 N.am   82  ARG82      -0.1963
     77  CA        56.3250   13.1560   25.3030 C.3    82  ARG82       0.1729
     78  C         57.3880   13.6300   26.3120 C.2    82  ARG82       0.2616
     79  O         57.3730   14.8030   26.7140 O.2    82  ARG82      -0.2715
     80  CB        56.8840   13.7600   24.0560 C.3    82  ARG82       0.0348
     81  CG        56.4360   13.2370   22.8230 C.3    82  ARG82       0.0492
     82  CD        57.5530   13.6160   21.8500 C.3    82  ARG82       0.2205
     83  NE        57.5650   15.0370   21.4720 N.pl3  82  ARG82      -0.0865
     84  CZ        57.8360   15.4720   20.2180 C.cat  82  ARG82       0.5346
     85  NH1       58.0990   14.6300   19.2160 N.pl3  82  ARG82       0.1354
     86  NH2       57.8500   16.7590   19.9620 N.pl3  82  ARG82       0.1354
     87  N         58.3750   12.8150   26.6430 N.am   83  LEU83      -0.1963
     88  CA        59.4890   13.3240   27.4170 C.3    83  LEU83       0.1728
     89  C         60.6080   13.3950   26.4030 C.2    83  LEU83       0.2616
     90  O         60.6620   12.5210   25.5510 O.2    83  LEU83      -0.2715
     91  CB        59.8190   12.4080   28.5800 C.3    83  LEU83       0.0311
     92  CG        60.9790   12.8730   29.4540 C.3    83  LEU83       0.0022
     93  CD1       60.7390   14.2020   30.2690 C.3    83  LEU83       0.0001
     94  CD2       61.3960   11.7770   30.3810 C.3    83  LEU83       0.0001
     95  N         61.4480   14.4480   26.4280 N.am   84  ILE84      -0.1977
     96  CA        62.5240   14.6090   25.4610 C.3    84  ILE84       0.1596
     97  C         63.8470   14.5400   26.2190 C.2    84  ILE84       0.2287
     98  O         64.0930   15.3270   27.1140 O.2    84  ILE84      -0.2864
     99  CB        62.4540   15.9570   24.7570 C.3    84  ILE84       0.0276
    100  CG1       61.1250   16.1090   24.0400 C.3    84  ILE84       0.0022
    101  CG2       63.7010   16.1690   23.7610 C.3    84  ILE84       0.0022
    102  CD1       60.9610   17.4820   23.3160 C.3    84  ILE84       0.0001
    103  N         56.7580   33.7820   24.7480 N.3   133  ASP133     -0.1239
    104  CA        58.0200   33.4610   24.1140 C.3   133  ASP133      0.1674
    105  C         58.9580   34.6450   24.1360 C.2   133  ASP133      0.2266
    106  O         58.5020   35.7830   24.1920 O.2   133  ASP133     -0.2867
    107  CB        57.8330   32.9290   22.6850 C.3   133  ASP133      0.1410
    108  CG        57.1250   31.5640   22.6360 C.2   133  ASP133      0.3668
    109  OD1       57.3040   30.6790   23.5000 O.co2 133  ASP133     -0.2456
    110  OD2       56.3960   31.3430   21.6780 O.co2 133  ASP133     -0.2456
    111  N         62.7770   26.1640   28.5000 N.3   168  GLY168     -0.1210
    112  CA        63.0080   25.9690   27.0580 C.3   168  GLY168      0.1956
    113  C         61.7100   25.7000   26.2640 C.2   168  GLY168      0.2612
    114  O         60.6010   25.6060   26.8410 O.2   168  GLY168     -0.2717
    115  N         61.8470   25.6180   24.9350 N.am  169  ARG169     -0.1965
    116  CA        60.7620   25.2760   24.0340 C.3   169  ARG169      0.1729
    117  C         61.0670   23.9280   23.5400 C.2   169  ARG169      0.2617
    118  O         62.2190   23.6190   23.3260 O.2   169  ARG169     -0.2715
    119  CB        60.7100   26.2230   22.8730 C.3   169  ARG169      0.0348
    120  CG        60.0590   27.5500   23.2780 C.3   169  ARG169      0.0492
    121  CD        60.5220   28.6600   22.3590 C.3   169  ARG169      0.2205
    122  NE        60.2280   28.2860   20.9770 N.pl3 169  ARG169     -0.0865
    123  CZ        59.0140   28.3610   20.4690 C.cat 169  ARG169      0.5346
    124  NH1       58.0300   28.8450   21.2310 N.pl3 169  ARG169      0.1354
    125  NH2       58.7840   27.9760   19.2290 N.pl3 169  ARG169      0.1354
    126  N         60.0500   23.0990   23.3360 N.am  170  SER170     -0.1936
    127  CA        60.2940   21.6960   22.9960 C.3   170  SER170      0.2055
    128  C         60.7940   21.5130   21.5630 C.2   170  SER170      0.2643
    129  O         61.6310   20.6230   21.3170 O.2   170  SER170     -0.2714
    130  CB        59.0750   20.8400   23.2840 C.3   170  SER170      0.2130
    131  OG        58.0830   21.1310   22.3240 O.3   170  SER170     -0.2179
    132  N         60.3540   22.3720   20.6420 N.am  171  GLY171     -0.1954
    133  CA        60.9080   22.3700   19.2980 C.3   171  GLY171      0.1869
    134  C         62.4100   22.3950   19.2980 C.2   171  GLY171      0.2309
    135  O         63.0750   21.5850   18.5920 O.2   171  GLY171     -0.2863
    136  N         62.4920   32.6190   18.6370 N.3   208  ARG208     -0.1245
    137  CA        61.9670   32.3890   19.9710 C.3   208  ARG208      0.1563
    138  C         62.7410   31.2240   20.5600 C.2   208  ARG208      0.2260
    139  O         62.8040   30.1740   19.9820 O.2   208  ARG208     -0.2867
    140  CB        60.4930   32.1380   19.8860 C.3   208  ARG208      0.0307
    141  CG        59.7840   33.3280   19.2860 C.3   208  ARG208      0.0489
    142  CD        58.2540   33.2580   19.5200 C.3   208  ARG208      0.2205
    143  NE        57.6240   32.0860   18.8950 N.pl3 208  ARG208     -0.0865
    144  CZ        57.3460   32.0020   17.5970 C.cat 208  ARG208      0.5346
    145  NH1       57.6370   33.0260   16.7740 N.pl3 208  ARG208      0.1354
    146  NH2       56.7890   30.9000   17.1130 N.pl3 208  ARG208      0.1354
    147  N         60.9380   30.5920   26.8940 N.3   211  GLN211     -0.1245
    148  CA        59.6430   31.1270   27.2450 C.3   211  GLN211      0.1566
    149  C         59.6340   31.4950   28.6970 C.2   211  GLN211      0.2260
    150  O         60.2970   30.8590   29.5180 O.2   211  GLN211     -0.2867
    151  CB        58.5000   30.1560   26.9440 C.3   211  GLN211      0.0367
    152  CG        58.5460   28.8620   27.6720 C.3   211  GLN211      0.0905
    153  CD        57.5160   27.8110   27.1480 C.2   211  GLN211      0.2608
    154  OE1       56.2880   28.0440   27.1500 O.2   211  GLN211     -0.2717
    155  NE2       58.0330   26.6370   26.7210 N.am  211  GLN211     -0.0878
@<TRIPOS>BOND
     1   145   144    1
     2   146   144    1
     3   144   143    2
     4   135   134    2
     5   136   137    1
     6   143   142    1
     7    85    84    1
     8   125   123    1
     9   141   142    1
    10   141   140    1
    11   133   134    1
    12   133   132    1
    13   140   137    1
    14    86    84    1
    15   137   138    1
    16   139   138    2
    17    84    83    2
    18   123   122    2
    19   123   124    1
    20   132   128   am
    21   122   121    1
    22   129   128    2
    23    83    82    1
    24   128   127    1
    25    66    65   ar
    26   110   108   ar
    27    82    81    1
    28    55    53   ar
    29    55    57   ar
    30    58    57    1
    31   131   130    1
    32   121   120    1
    33   108   107    1
    34   108   109   ar
    35   107   104    1
    36    81    80    1
    37    53    52   ar
    38   119   120    1
    39   119   116    1
    40    65    67   ar
    41    65    64    1
    42    57    56   ar
    43   127   130    1
    44   127   126    1
    45    63    64    1
    46    63    60    1
    47    59    60    1
    48   102   100    1
    49   118   117    2
    50   126   117   am
    51   117   116    1
    52    62    61    2
    53   101    99    1
    54    60    61    1
    55   116   115    1
    56   100    99    1
    57    80    77    1
    58   104   105    1
    59   104   103    1
    60   105   106    2
    61    52    54   ar
    62    52    51    1
    63    56    54   ar
    64    61    68   am
    65    46    44   ar
    66    48    51    1
    67    48    49    1
    68    48    47    1
    69    99    96    1
    70   115   113   am
    71    45    44   ar
    72    44    43    1
    73    49    50    2
    74    77    76    1
    75    77    78    1
    76    96    97    1
    77    96    95    1
    78    76    70   am
    79    90    89    2
    80    43    40    1
    81    68    69    1
    82    70    71    2
    83    70    69    1
    84    69    72    1
    85    97    98    2
    86   113   114    2
    87   113   112    1
    88    78    87   am
    89    78    79    2
    90    89    95   am
    91    89    88    1
    92    87    88    1
    93    18    17   ar
    94    18    16   ar
    95   155   153   am
    96    17    15   ar
    97   147   148    1
    98    16    14   ar
    99   151   148    1
   100   151   152    1
   101    15    14   ar
   102    40    39    1
   103    40    41    1
   104   112   111    1
   105    14    13    1
   106   153   154    2
   107   153   152    1
   108   148   149    1
   109    39    33   am
   110    13    10    1
   111    88    91    1
   112    42    41    2
   113    72    73    1
   114    26    25    2
   115    75    73    1
   116    37    35    1
   117    73    74    1
   118    33    32    1
   119    33    34    2
   120    32    35    1
   121    32    31    1
   122    91    92    1
   123   149   150    2
   124    10     9    1
   125    10    11    1
   126    38    36    1
   127    25    31   am
   128    25    24    1
   129    35    36    1
   130    20    21    1
   131    20    19    1
   132     8     6    1
   133    23    24    1
   134    23    21   am
   135    92    93    1
   136    92    94    1
   137    11    12    2
   138    24    27    1
   139    27    29    1
   140    27    28    1
   141    21    22    2
   142     6     5    1
   143     6     7    1
   144    28    30    1
   145     5     2    1
   146     4     3    2
   147     2     3    1
   148     2     1    1
