@<TRIPOS>MOLECULE
tmp/2bt3A00.pdb
 96 94 0 0 0
SMALL
GASTEIGER

@<TRIPOS>ATOM
      1  N         14.6640    5.3510   27.9270 N.3    94  GLU94      -0.1231
      2  CA        14.0370    6.3640   27.0790 C.3    94  GLU94       0.1699
      3  C         14.6600    6.4120   25.6990 C.2    94  GLU94       0.2592
      4  O         13.9540    6.4350   24.6830 O.2    94  GLU94      -0.2718
      5  CB        14.2240    7.7490   27.6940 C.3    94  GLU94       0.0402
      6  CG        13.0080    8.3780   28.3420 C.3    94  GLU94       0.1161
      7  CD        13.4080    9.5130   29.2770 C.2    94  GLU94       0.3649
      8  OE1       14.2600   10.3310   28.8830 O.co2  94  GLU94      -0.2457
      9  OE2       12.9130    9.5670   30.4240 O.co2  94  GLU94      -0.2457
     10  N         15.9920    6.4470   25.6710 N.am   95  GLU95      -0.1979
     11  CA        16.7590    6.6420   24.4410 C.3    95  GLU95       0.1602
     12  C         16.6850    5.4630   23.4670 C.2    95  GLU95       0.2287
     13  O         17.0700    5.5730   22.3070 O.2    95  GLU95      -0.2864
     14  CB        18.2270    6.9290   24.7700 C.3    95  GLU95       0.0415
     15  CG        19.0330    5.7280   25.2360 C.3    95  GLU95       0.1163
     16  CD        20.3130    6.1120   25.9690 C.2    95  GLU95       0.3649
     17  OE1       20.2270    6.7380   27.0530 O.co2  95  GLU95      -0.2457
     18  OE2       21.4080    5.7730   25.4660 O.co2  95  GLU95      -0.2457
     19  N         13.8710    4.0170   22.5900 N.3    97  PHE97      -0.1227
     20  CA        12.5590    3.9790   21.9480 C.3    97  PHE97       0.1736
     21  C         12.5600    4.2450   20.4540 C.2    97  PHE97       0.2595
     22  O         11.7080    3.7220   19.7390 O.2    97  PHE97      -0.2718
     23  CB        11.6140    4.9530   22.6300 C.3    97  PHE97       0.0547
     24  CG        11.3330    4.5960   24.0580 C.ar   97  PHE97      -0.0202
     25  CD1       11.1290    3.2770   24.4340 C.ar   97  PHE97      -0.0042
     26  CD2       11.3000    5.5700   25.0270 C.ar   97  PHE97      -0.0042
     27  CE1       10.8750    2.9480   25.7380 C.ar   97  PHE97      -0.0003
     28  CE2       11.0520    5.2400   26.3260 C.ar   97  PHE97      -0.0003
     29  CZ        10.8340    3.9240   26.6840 C.ar   97  PHE97      -0.0000
     30  N         13.5000    5.0760   20.0140 N.am   98  GLU98      -0.1979
     31  CA        13.6540    5.4330   18.6100 C.3    98  GLU98       0.1602
     32  C         14.4730    4.3920   17.8530 C.2    98  GLU98       0.2287
     33  O         14.3800    4.2910   16.6300 O.2    98  GLU98      -0.2864
     34  CB        14.3490    6.8010   18.5000 C.3    98  GLU98       0.0415
     35  CG        15.7690    6.8390   19.0680 C.3    98  GLU98       0.1163
     36  CD        16.2590    8.2510   19.3550 C.2    98  GLU98       0.3649
     37  OE1       15.9300    8.7890   20.4370 O.co2  98  GLU98      -0.2457
     38  OE2       16.9740    8.8190   18.4990 O.co2  98  GLU98      -0.2457
     39  N          8.5860    0.4080   20.2820 N.3   128  PRO128     -0.2102
     40  CA         9.6690   -0.2750   20.9950 C.3   128  PRO128      0.1504
     41  C          9.1350   -1.1020   22.1550 C.2   128  PRO128      0.2575
     42  O          8.9800   -0.6130   23.2730 O.2   128  PRO128     -0.2718
     43  CB        10.5050    0.8910   21.5140 C.3   128  PRO128      0.0282
     44  CG         9.4880    1.9630   21.7880 C.3   128  PRO128      0.0208
     45  CD         8.4040    1.7940   20.7690 C.3   128  PRO128      0.0893
     46  N          8.8700   -2.3710   21.8850 N.am  129  LEU129     -0.1980
     47  CA         8.0670   -3.1900   22.7760 C.3   129  LEU129      0.1596
     48  C          8.9220   -4.1730   23.5510 C.2   129  LEU129      0.2287
     49  O          9.8240   -4.7900   22.9920 O.2   129  LEU129     -0.2864
     50  CB         7.0140   -3.9390   21.9550 C.3   129  LEU129      0.0297
     51  CG         6.1150   -2.9940   21.1370 C.3   129  LEU129      0.0022
     52  CD1        5.2500   -3.7440   20.0960 C.3   129  LEU129      0.0001
     53  CD2        5.2920   -2.1290   22.0730 C.3   129  LEU129      0.0001
     54  N          9.0800   -0.4580   32.0190 N.3   294  TYR294     -0.1241
     55  CA         9.1310    0.8940   31.4280 C.3   294  TYR294      0.1605
     56  C          9.3540    2.0380   32.4270 C.2   294  TYR294      0.2264
     57  O          9.9270    3.0660   32.0610 O.2   294  TYR294     -0.2867
     58  CB         7.8660    1.1630   30.6080 C.3   294  TYR294      0.0534
     59  CG         7.8170    0.3930   29.3050 C.ar  294  TYR294     -0.0201
     60  CD1        7.1390   -0.8210   29.2130 C.ar  294  TYR294     -0.0009
     61  CD2        8.4910    0.8570   28.1760 C.ar  294  TYR294     -0.0009
     62  CE1        7.1110   -1.5390   28.0250 C.ar  294  TYR294      0.0417
     63  CE2        8.4690    0.1500   26.9940 C.ar  294  TYR294      0.0417
     64  CZ         7.7790   -1.0420   26.9210 C.ar  294  TYR294      0.1957
     65  OH         7.7550   -1.7350   25.7350 O.3   294  TYR294     -0.2866
     66  N          7.3990    8.7230   32.9900 N.3   299  TYR299     -0.1241
     67  CA         6.5050    9.2350   31.9410 C.3   299  TYR299      0.1605
     68  C          5.2590    9.9380   32.4800 C.2   299  TYR299      0.2264
     69  O          4.2890   10.1590   31.7540 O.2   299  TYR299     -0.2867
     70  CB         6.1370    8.0790   30.9940 C.3   299  TYR299      0.0534
     71  CG         7.3850    7.4410   30.4330 C.ar  299  TYR299     -0.0201
     72  CD1        8.2870    8.2010   29.6980 C.ar  299  TYR299     -0.0009
     73  CD2        7.6820    6.1010   30.6610 C.ar  299  TYR299     -0.0009
     74  CE1        9.4640    7.6520   29.2130 C.ar  299  TYR299      0.0417
     75  CE2        8.8490    5.5330   30.1680 C.ar  299  TYR299      0.0417
     76  CZ         9.7390    6.3180   29.4430 C.ar  299  TYR299      0.1957
     77  OH        10.9120    5.7960   28.9470 O.3   299  TYR299     -0.2866
     78  N          1.8770    8.1960   30.6890 N.3   370  THR370     -0.1203
     79  CA         1.6290    7.7410   29.3330 C.3   370  THR370      0.1994
     80  C          2.6910    6.7350   28.9630 C.2   370  THR370      0.2618
     81  O          3.8640    7.0410   29.0280 O.2   370  THR370     -0.2717
     82  CB         1.6960    8.9010   28.3430 C.3   370  THR370      0.1784
     83  OG1        0.7070    9.8950   28.6450 O.3   370  THR370     -0.2211
     84  CG2        1.3720    8.4270   26.9220 C.3   370  THR370      0.0376
     85  N          2.2620    5.5530   28.5510 N.am  371  ILE371     -0.1965
     86  CA         3.1470    4.4690   28.1270 C.3   371  ILE371      0.1727
     87  C          2.7110    4.0790   26.7130 C.2   371  ILE371      0.2616
     88  O          1.7900    3.3140   26.5560 O.2   371  ILE371     -0.2715
     89  CB         3.0530    3.2530   29.0670 C.3   371  ILE371      0.0290
     90  CG1        3.2290    3.6370   30.5410 C.3   371  ILE371      0.0022
     91  CG2        4.0830    2.2080   28.6530 C.3   371  ILE371      0.0023
     92  CD1        4.6350    4.0710   30.8880 C.3   371  ILE371      0.0001
     93  N          3.3280    4.6750   25.6990 N.am  372  GLY372     -0.1955
     94  CA         2.9730    4.4100   24.3160 C.3   372  GLY372      0.1869
     95  C          1.5530    4.8370   23.9790 C.2   372  GLY372      0.2309
     96  O          1.2250    6.0150   24.0020 O.2   372  GLY372     -0.2863
@<TRIPOS>BOND
     1    33    32    2
     2    32    31    1
     3    38    36   ar
     4    34    31    1
     5    34    35    1
     6    31    30    1
     7    35    36    1
     8    36    37   ar
     9    22    21    2
    10    30    21   am
    11    52    51    1
    12    39    45    1
    13    39    40    1
    14    21    20    1
    15    45    44    1
    16    40    43    1
    17    40    41    1
    18    51    50    1
    19    51    53    1
    20    43    44    1
    21    46    41   am
    22    46    47    1
    23    20    19    1
    24    20    23    1
    25    50    47    1
    26    41    42    2
    27    13    12    2
    28    23    24    1
    29    47    48    1
    30    49    48    2
    31    12    11    1
    32    95    96    2
    33    95    94    1
    34    24    25   ar
    35    24    26   ar
    36    94    93    1
    37    25    27   ar
    38    11    14    1
    39    11    10    1
    40     4     3    2
    41    14    15    1
    42    26    28   ar
    43    15    16    1
    44    18    16   ar
    45    10     3   am
    46    93    87   am
    47     3     2    1
    48    65    64    1
    49    27    29   ar
    50    16    17   ar
    51    28    29   ar
    52    88    87    2
    53    87    86    1
    54    64    63   ar
    55    64    62   ar
    56    84    82    1
    57    63    61   ar
    58     2     5    1
    59     2     1    1
    60     5     6    1
    61    62    60   ar
    62    86    85    1
    63    86    89    1
    64    61    59   ar
    65     6     7    1
    66    82    83    1
    67    82    79    1
    68    85    80   am
    69    91    89    1
    70     8     7   ar
    71    77    76    1
    72    80    81    2
    73    80    79    1
    74    89    90    1
    75    74    76   ar
    76    74    72   ar
    77    60    59   ar
    78     7     9   ar
    79    59    58    1
    80    79    78    1
    81    76    75   ar
    82    72    71   ar
    83    75    73   ar
    84    71    73   ar
    85    71    70    1
    86    90    92    1
    87    58    55    1
    88    70    67    1
    89    55    54    1
    90    55    56    1
    91    69    68    2
    92    67    68    1
    93    67    66    1
    94    57    56    2
